   23
    1    -0.1020089152E+04
     Ti         0.2016360550E+01         0.2016360550E+01         0.1310164181E+02
      O         0.0000000000E+00         0.2016360550E+01         0.1310164181E+02
      O         0.2016360550E+01         0.0000000000E+00         0.1310164181E+02
     Ba         0.0000000000E+00         0.0000000000E+00         0.1511800236E+02
     Ti         0.2016360550E+01         0.2016360550E+01         0.1713436291E+02
      O         0.0000000000E+00         0.2016360550E+01         0.1713436291E+02
      O         0.2016360550E+01         0.0000000000E+00         0.1713436291E+02
      O         0.2016360550E+01         0.2016360550E+01         0.1511800236E+02
     Ba         0.0000000000E+00         0.0000000000E+00         0.1915072345E+02
     Ti         0.2016360550E+01         0.2016360550E+01         0.2116708400E+02
      O         0.0000000000E+00         0.2016360550E+01         0.2116708400E+02
      O         0.2016360550E+01         0.0000000000E+00         0.2116708400E+02
      O         0.2016360550E+01         0.2016360550E+01         0.1915072345E+02
     Ba         0.0000000000E+00         0.0000000000E+00         0.2318344455E+02
     Ti         0.2016360550E+01         0.2016360550E+01         0.2519980509E+02
      O         0.0000000000E+00         0.2016360550E+01         0.2519980509E+02
      O         0.2016360550E+01         0.0000000000E+00         0.2519980509E+02
      O         0.2016360550E+01         0.2016360550E+01         0.2318344455E+02
     Ba         0.0000000000E+00         0.0000000000E+00         0.2721616564E+02
     Ti         0.2016360550E+01         0.2016360550E+01         0.2923252619E+02
      O         0.0000000000E+00         0.2016360550E+01         0.2923252619E+02
      O         0.2016360550E+01         0.0000000000E+00         0.2923252619E+02
      O         0.2016360550E+01         0.2016360550E+01         0.2721616564E+02
   23
    2    -0.1020104185E+04
     Ti         0.2016360550E+01         0.2016360550E+01         0.1314767643E+02
      O         0.0000000000E+00         0.2016360550E+01         0.1309372251E+02
      O         0.2016360550E+01         0.0000000000E+00         0.1309372251E+02
     Ba         0.0000000000E+00         0.0000000000E+00         0.1510222139E+02
     Ti         0.2016360550E+01         0.2016360550E+01         0.1713758281E+02
      O         0.0000000000E+00         0.2016360550E+01         0.1713674381E+02
      O         0.2016360550E+01         0.0000000000E+00         0.1713674381E+02
      O         0.2016360550E+01         0.2016360550E+01         0.1510226393E+02
     Ba         0.0000000000E+00         0.0000000000E+00         0.1914998083E+02
     Ti         0.2016360550E+01         0.2016360550E+01         0.2116708400E+02
      O         0.0000000000E+00         0.2016360550E+01         0.2116708400E+02
      O         0.2016360550E+01         0.0000000000E+00         0.2116708400E+02
      O         0.2016360550E+01         0.2016360550E+01         0.1914972427E+02
     Ba         0.0000000000E+00         0.0000000000E+00         0.2318418640E+02
     Ti         0.2016360550E+01         0.2016360550E+01         0.2519658857E+02
      O         0.0000000000E+00         0.2016360550E+01         0.2519742359E+02
      O         0.2016360550E+01         0.0000000000E+00         0.2519742359E+02
      O         0.2016360550E+01         0.2016360550E+01         0.2318444283E+02
     Ba         0.0000000000E+00         0.0000000000E+00         0.2723194792E+02
     Ti         0.2016360550E+01         0.2016360550E+01         0.2918647999E+02
      O         0.0000000000E+00         0.2016360550E+01         0.2924044829E+02
      O         0.2016360550E+01         0.0000000000E+00         0.2924044829E+02
      O         0.2016360550E+01         0.2016360550E+01         0.2723190365E+02
   23
    3    -0.1020113078E+04
     Ti         0.2016360550E+01         0.2016360550E+01         0.1322393072E+02
      O         0.0000000000E+00         0.2016360550E+01         0.1309140643E+02
      O         0.2016360550E+01         0.0000000000E+00         0.1309140643E+02
     Ba         0.0000000000E+00         0.0000000000E+00         0.1506562446E+02
     Ti         0.2016360550E+01         0.2016360550E+01         0.1714373855E+02
      O         0.0000000000E+00         0.2016360550E+01         0.1714104183E+02
      O         0.2016360550E+01         0.0000000000E+00         0.1714104183E+02
      O         0.2016360550E+01         0.2016360550E+01         0.1509681082E+02
     Ba         0.0000000000E+00         0.0000000000E+00         0.1914780801E+02
     Ti         0.2016360550E+01         0.2016360550E+01         0.2116708400E+02
      O         0.0000000000E+00         0.2016360550E+01         0.2116708400E+02
      O         0.2016360550E+01         0.0000000000E+00         0.2116708400E+02
      O         0.2016360550E+01         0.2016360550E+01         0.1914795123E+02
     Ba         0.0000000000E+00         0.0000000000E+00         0.2318635855E+02
     Ti         0.2016360550E+01         0.2016360550E+01         0.2519043411E+02
      O         0.0000000000E+00         0.2016360550E+01         0.2519312623E+02
      O         0.2016360550E+01         0.0000000000E+00         0.2519312623E+02
      O         0.2016360550E+01         0.2016360550E+01         0.2318621576E+02
     Ba         0.0000000000E+00         0.0000000000E+00         0.2726854564E+02
     Ti         0.2016360550E+01         0.2016360550E+01         0.2911022650E+02
      O         0.0000000000E+00         0.2016360550E+01         0.2924276264E+02
      O         0.2016360550E+01         0.0000000000E+00         0.2924276264E+02
      O         0.2016360550E+01         0.2016360550E+01         0.2723735654E+02
   23
    4    -0.1020116745E+04
     Ti         0.2016360550E+01         0.2016360550E+01         0.1321061134E+02
      O         0.0000000000E+00         0.2016360550E+01         0.1309372251E+02
      O         0.2016360550E+01         0.0000000000E+00         0.1309372251E+02
     Ba         0.0000000000E+00         0.0000000000E+00         0.1500915475E+02
     Ti         0.2016360550E+01         0.2016360550E+01         0.1715522959E+02
      O         0.0000000000E+00         0.2016360550E+01         0.1714055152E+02
      O         0.2016360550E+01         0.0000000000E+00         0.1714055152E+02
      O         0.2016360550E+01         0.2016360550E+01         0.1510173406E+02
     Ba         0.0000000000E+00         0.0000000000E+00         0.1914382120E+02
     Ti         0.2016360550E+01         0.2016360550E+01         0.2116708400E+02
      O         0.0000000000E+00         0.2016360550E+01         0.2116708400E+02
      O         0.2016360550E+01         0.0000000000E+00         0.2116708400E+02
      O         0.2016360550E+01         0.2016360550E+01         0.1914828566E+02
     Ba         0.0000000000E+00         0.0000000000E+00         0.2319034541E+02
     Ti         0.2016360550E+01         0.2016360550E+01         0.2517893732E+02
      O         0.0000000000E+00         0.2016360550E+01         0.2519361697E+02
      O         0.2016360550E+01         0.0000000000E+00         0.2519361697E+02
      O         0.2016360550E+01         0.2016360550E+01         0.2318588264E+02
     Ba         0.0000000000E+00         0.0000000000E+00         0.2732501598E+02
     Ti         0.2016360550E+01         0.2016360550E+01         0.2912355338E+02
      O         0.0000000000E+00         0.2016360550E+01         0.2924044829E+02
      O         0.2016360550E+01         0.0000000000E+00         0.2924044829E+02
      O         0.2016360550E+01         0.2016360550E+01         0.2723243256E+02
   23
    5    -0.1020116500E+04
     Ti         0.2016360550E+01         0.2016360550E+01         0.1321114691E+02
      O         0.0000000000E+00         0.2016360550E+01         0.1309460290E+02
      O         0.2016360550E+01         0.0000000000E+00         0.1309460290E+02
     Ba         0.0000000000E+00         0.0000000000E+00         0.1500919739E+02
     Ti         0.2016360550E+01         0.2016360550E+01         0.1716773311E+02
      O         0.0000000000E+00         0.2016360550E+01         0.1713952794E+02
      O         0.2016360550E+01         0.0000000000E+00         0.1713952794E+02
      O         0.2016360550E+01         0.2016360550E+01         0.1510098855E+02
     Ba         0.0000000000E+00         0.0000000000E+00         0.1913751045E+02
     Ti         0.2016360550E+01         0.2016360550E+01         0.2116708400E+02
      O         0.0000000000E+00         0.2016360550E+01         0.2116708456E+02
      O         0.2016360550E+01         0.0000000000E+00         0.2116708456E+02
      O         0.2016360550E+01         0.2016360550E+01         0.1915027846E+02
     Ba         0.0000000000E+00         0.0000000000E+00         0.2319665684E+02
     Ti         0.2016360550E+01         0.2016360550E+01         0.2516642894E+02
      O         0.0000000000E+00         0.2016360550E+01         0.2519464093E+02
      O         0.2016360550E+01         0.0000000000E+00         0.2519464093E+02
      O         0.2016360550E+01         0.2016360550E+01         0.2318388997E+02
     Ba         0.0000000000E+00         0.0000000000E+00         0.2732497238E+02
     Ti         0.2016360550E+01         0.2016360550E+01         0.2912301820E+02
      O         0.0000000000E+00         0.2016360550E+01         0.2923956754E+02
      O         0.2016360550E+01         0.0000000000E+00         0.2923956754E+02
      O         0.2016360550E+01         0.2016360550E+01         0.2723317805E+02
   23
    6    -0.1020116660E+04
     Ti         0.2016360550E+01         0.2016360550E+01         0.1321249478E+02
      O         0.0000000000E+00         0.2016360550E+01         0.1309659320E+02
      O         0.2016360550E+01         0.0000000000E+00         0.1309659320E+02
     Ba         0.0000000000E+00         0.0000000000E+00         0.1500915475E+02
     Ti         0.2016360550E+01         0.2016360550E+01         0.1716321908E+02
      O         0.0000000000E+00         0.2016360550E+01         0.1714055152E+02
      O         0.2016360550E+01         0.0000000000E+00         0.1714055152E+02
      O         0.2016360550E+01         0.2016360550E+01         0.1510069839E+02
     Ba         0.0000000000E+00         0.0000000000E+00         0.1913020155E+02
     Ti         0.2016360550E+01         0.2016360550E+01         0.2116708400E+02
      O         0.0000000000E+00         0.2016360550E+01         0.2116708456E+02
      O         0.2016360550E+01         0.0000000000E+00         0.2116708456E+02
      O         0.2016360550E+01         0.2016360550E+01         0.1915371176E+02
     Ba         0.0000000000E+00         0.0000000000E+00         0.2320396697E+02
     Ti         0.2016360550E+01         0.2016360550E+01         0.2517094339E+02
      O         0.0000000000E+00         0.2016360550E+01         0.2519361697E+02
      O         0.2016360550E+01         0.0000000000E+00         0.2519361697E+02
      O         0.2016360550E+01         0.2016360550E+01         0.2318045584E+02
     Ba         0.0000000000E+00         0.0000000000E+00         0.2732501598E+02
     Ti         0.2016360550E+01         0.2016360550E+01         0.2912167103E+02
      O         0.0000000000E+00         0.2016360550E+01         0.2923757621E+02
      O         0.2016360550E+01         0.0000000000E+00         0.2923757621E+02
      O         0.2016360550E+01         0.2016360550E+01         0.2723346830E+02
   23
    7    -0.1020116795E+04
     Ti         0.2016360550E+01         0.2016360550E+01         0.1321442282E+02
      O         0.0000000000E+00         0.2016360550E+01         0.1309965060E+02
      O         0.2016360550E+01         0.0000000000E+00         0.1309965060E+02
     Ba         0.0000000000E+00         0.0000000000E+00         0.1500861639E+02
     Ti         0.2016360550E+01         0.2016360550E+01         0.1716144169E+02
      O         0.0000000000E+00         0.2016360550E+01         0.1714072826E+02
      O         0.2016360550E+01         0.0000000000E+00         0.1714072826E+02
      O         0.2016360550E+01         0.2016360550E+01         0.1510006135E+02
     Ba         0.0000000000E+00         0.0000000000E+00         0.1913321602E+02
     Ti         0.2016360550E+01         0.2016360550E+01         0.2116708400E+02
      O         0.0000000000E+00         0.2016360550E+01         0.2116708456E+02
      O         0.2016360550E+01         0.0000000000E+00         0.2116708456E+02
      O         0.2016360550E+01         0.2016360550E+01         0.1915152867E+02
     Ba         0.0000000000E+00         0.0000000000E+00         0.2320095245E+02
     Ti         0.2016360550E+01         0.2016360550E+01         0.2517272259E+02
      O         0.0000000000E+00         0.2016360550E+01         0.2519343972E+02
      O         0.2016360550E+01         0.0000000000E+00         0.2519343972E+02
      O         0.2016360550E+01         0.2016360550E+01         0.2318263882E+02
     Ba         0.0000000000E+00         0.0000000000E+00         0.2732555484E+02
     Ti         0.2016360550E+01         0.2016360550E+01         0.2911974468E+02
      O         0.0000000000E+00         0.2016360550E+01         0.2923451754E+02
      O         0.2016360550E+01         0.0000000000E+00         0.2923451754E+02
      O         0.2016360550E+01         0.2016360550E+01         0.2723410560E+02
   23
    8    -0.1020116886E+04
     Ti         0.2016360550E+01         0.2016360550E+01         0.1321692717E+02
      O         0.0000000000E+00         0.2016360550E+01         0.1310394561E+02
      O         0.2016360550E+01         0.0000000000E+00         0.1310394561E+02
     Ba         0.0000000000E+00         0.0000000000E+00         0.1500785938E+02
     Ti         0.2016360550E+01         0.2016360550E+01         0.1715795028E+02
      O         0.0000000000E+00         0.2016360550E+01         0.1714076475E+02
      O         0.2016360550E+01         0.0000000000E+00         0.1714076475E+02
      O         0.2016360550E+01         0.2016360550E+01         0.1509905866E+02
     Ba         0.0000000000E+00         0.0000000000E+00         0.1913469646E+02
     Ti         0.2016360550E+01         0.2016360550E+01         0.2116708400E+02
      O         0.0000000000E+00         0.2016360550E+01         0.2116708456E+02
      O         0.2016360550E+01         0.0000000000E+00         0.2116708456E+02
      O         0.2016360550E+01         0.2016360550E+01         0.1914792747E+02
     Ba         0.0000000000E+00         0.0000000000E+00         0.2319947258E+02
     Ti         0.2016360550E+01         0.2016360550E+01         0.2517621969E+02
      O         0.0000000000E+00         0.2016360550E+01         0.2519340322E+02
      O         0.2016360550E+01         0.0000000000E+00         0.2519340322E+02
      O         0.2016360550E+01         0.2016360550E+01         0.2318624074E+02
     Ba         0.0000000000E+00         0.0000000000E+00         0.2732631142E+02
     Ti         0.2016360550E+01         0.2016360550E+01         0.2911723961E+02
      O         0.0000000000E+00         0.2016360550E+01         0.2923022112E+02
      O         0.2016360550E+01         0.0000000000E+00         0.2923022112E+02
      O         0.2016360550E+01         0.2016360550E+01         0.2723510887E+02
   23
    9    -0.1020116896E+04
     Ti         0.2016360550E+01         0.2016360550E+01         0.1321658533E+02
      O         0.0000000000E+00         0.2016360550E+01         0.1310951736E+02
      O         0.2016360550E+01         0.0000000000E+00         0.1310951736E+02
     Ba         0.0000000000E+00         0.0000000000E+00         0.1500820231E+02
     Ti         0.2016360550E+01         0.2016360550E+01         0.1715388566E+02
      O         0.0000000000E+00         0.2016360550E+01         0.1714072826E+02
      O         0.2016360550E+01         0.0000000000E+00         0.1714072826E+02
      O         0.2016360550E+01         0.2016360550E+01         0.1509791767E+02
     Ba         0.0000000000E+00         0.0000000000E+00         0.1913504184E+02
     Ti         0.2016360550E+01         0.2016360550E+01         0.2116708400E+02
      O         0.0000000000E+00         0.2016360550E+01         0.2116708456E+02
      O         0.2016360550E+01         0.0000000000E+00         0.2116708456E+02
      O         0.2016360550E+01         0.2016360550E+01         0.1914831741E+02
     Ba         0.0000000000E+00         0.0000000000E+00         0.2319912663E+02
     Ti         0.2016360550E+01         0.2016360550E+01         0.2518028613E+02
      O         0.0000000000E+00         0.2016360550E+01         0.2519343972E+02
      O         0.2016360550E+01         0.0000000000E+00         0.2519343972E+02
      O         0.2016360550E+01         0.2016360550E+01         0.2318585108E+02
     Ba         0.0000000000E+00         0.0000000000E+00         0.2732596748E+02
     Ti         0.2016360550E+01         0.2016360550E+01         0.2911758016E+02
      O         0.0000000000E+00         0.2016360550E+01         0.2922464779E+02
      O         0.2016360550E+01         0.0000000000E+00         0.2922464779E+02
      O         0.2016360550E+01         0.2016360550E+01         0.2723625067E+02
   23
   10    -0.1020116841E+04
     Ti         0.2016360550E+01         0.2016360550E+01         0.1321692717E+02
      O         0.0000000000E+00         0.2016360550E+01         0.1311541650E+02
      O         0.2016360550E+01         0.0000000000E+00         0.1311541650E+02
     Ba         0.0000000000E+00         0.0000000000E+00         0.1500968176E+02
     Ti         0.2016360550E+01         0.2016360550E+01         0.1715490482E+02
      O         0.0000000000E+00         0.2016360550E+01         0.1714025681E+02
      O         0.2016360550E+01         0.0000000000E+00         0.1714025681E+02
      O         0.2016360550E+01         0.2016360550E+01         0.1509665651E+02
     Ba         0.0000000000E+00         0.0000000000E+00         0.1913607446E+02
     Ti         0.2016360550E+01         0.2016360550E+01         0.2116708400E+02
      O         0.0000000000E+00         0.2016360550E+01         0.2116708395E+02
      O         0.2016360550E+01         0.0000000000E+00         0.2116708395E+02
      O         0.2016360550E+01         0.2016360550E+01         0.1914810825E+02
     Ba         0.0000000000E+00         0.0000000000E+00         0.2319809309E+02
     Ti         0.2016360550E+01         0.2016360550E+01         0.2517926648E+02
      O         0.0000000000E+00         0.2016360550E+01         0.2519391150E+02
      O         0.2016360550E+01         0.0000000000E+00         0.2519391150E+02
      O         0.2016360550E+01         0.2016360550E+01         0.2318606034E+02
     Ba         0.0000000000E+00         0.0000000000E+00         0.2732448604E+02
     Ti         0.2016360550E+01         0.2016360550E+01         0.2911723961E+02
      O         0.0000000000E+00         0.2016360550E+01         0.2921874769E+02
      O         0.2016360550E+01         0.0000000000E+00         0.2921874769E+02
      O         0.2016360550E+01         0.2016360550E+01         0.2723751253E+02
   23
   11    -0.1020116866E+04
     Ti         0.2016360550E+01         0.2016360550E+01         0.1321849949E+02
      O         0.0000000000E+00         0.2016360550E+01         0.1311413528E+02
      O         0.2016360550E+01         0.0000000000E+00         0.1311413528E+02
     Ba         0.0000000000E+00         0.0000000000E+00         0.1501220980E+02
     Ti         0.2016360550E+01         0.2016360550E+01         0.1715535474E+02
      O         0.0000000000E+00         0.2016360550E+01         0.1713953945E+02
      O         0.2016360550E+01         0.0000000000E+00         0.1713953945E+02
      O         0.2016360550E+01         0.2016360550E+01         0.1509720059E+02
     Ba         0.0000000000E+00         0.0000000000E+00         0.1913604841E+02
     Ti         0.2016360550E+01         0.2016360550E+01         0.2116708400E+02
      O         0.0000000000E+00         0.2016360550E+01         0.2116708395E+02
      O         0.2016360550E+01         0.0000000000E+00         0.2116708395E+02
      O         0.2016360550E+01         0.2016360550E+01         0.1914809492E+02
     Ba         0.0000000000E+00         0.0000000000E+00         0.2319811884E+02
     Ti         0.2016360550E+01         0.2016360550E+01         0.2517881795E+02
      O         0.0000000000E+00         0.2016360550E+01         0.2519462933E+02
      O         0.2016360550E+01         0.0000000000E+00         0.2519462933E+02
      O         0.2016360550E+01         0.2016360550E+01         0.2318607390E+02
     Ba         0.0000000000E+00         0.0000000000E+00         0.2732195551E+02
     Ti         0.2016360550E+01         0.2016360550E+01         0.2911566975E+02
      O         0.0000000000E+00         0.2016360550E+01         0.2922002982E+02
      O         0.2016360550E+01         0.0000000000E+00         0.2922002982E+02
      O         0.2016360550E+01         0.2016360550E+01         0.2723696879E+02
   23
   12    -0.1020116871E+04
     Ti         0.2016360550E+01         0.2016360550E+01         0.1322051241E+02
      O         0.0000000000E+00         0.2016360550E+01         0.1311358019E+02
      O         0.2016360550E+01         0.0000000000E+00         0.1311358019E+02
     Ba         0.0000000000E+00         0.0000000000E+00         0.1501214142E+02
     Ti         0.2016360550E+01         0.2016360550E+01         0.1715552565E+02
      O         0.0000000000E+00         0.2016360550E+01         0.1713873236E+02
      O         0.2016360550E+01         0.0000000000E+00         0.1713873236E+02
      O         0.2016360550E+01         0.2016360550E+01         0.1509889370E+02
     Ba         0.0000000000E+00         0.0000000000E+00         0.1913593314E+02
     Ti         0.2016360550E+01         0.2016360550E+01         0.2116708400E+02
      O         0.0000000000E+00         0.2016360550E+01         0.2116708395E+02
      O         0.2016360550E+01         0.0000000000E+00         0.2116708395E+02
      O         0.2016360550E+01         0.2016360550E+01         0.1914810825E+02
     Ba         0.0000000000E+00         0.0000000000E+00         0.2319823290E+02
     Ti         0.2016360550E+01         0.2016360550E+01         0.2517864577E+02
      O         0.0000000000E+00         0.2016360550E+01         0.2519543737E+02
      O         0.2016360550E+01         0.0000000000E+00         0.2519543737E+02
      O         0.2016360550E+01         0.2016360550E+01         0.2318606034E+02
     Ba         0.0000000000E+00         0.0000000000E+00         0.2732202393E+02
     Ti         0.2016360550E+01         0.2016360550E+01         0.2911365899E+02
      O         0.0000000000E+00         0.2016360550E+01         0.2922058645E+02
      O         0.2016360550E+01         0.0000000000E+00         0.2922058645E+02
      O         0.2016360550E+01         0.2016360550E+01         0.2723527581E+02
   23
   13    -0.1020116887E+04
     Ti         0.2016360550E+01         0.2016360550E+01         0.1322020128E+02
      O         0.0000000000E+00         0.2016360550E+01         0.1311346546E+02
      O         0.2016360550E+01         0.0000000000E+00         0.1311346546E+02
     Ba         0.0000000000E+00         0.0000000000E+00         0.1501216855E+02
     Ti         0.2016360550E+01         0.2016360550E+01         0.1715587075E+02
      O         0.0000000000E+00         0.2016360550E+01         0.1713881948E+02
      O         0.2016360550E+01         0.0000000000E+00         0.1713881948E+02
      O         0.2016360550E+01         0.2016360550E+01         0.1510148873E+02
     Ba         0.0000000000E+00         0.0000000000E+00         0.1913566376E+02
     Ti         0.2016360550E+01         0.2016360550E+01         0.2116708400E+02
      O         0.0000000000E+00         0.2016360550E+01         0.2116708395E+02
      O         0.2016360550E+01         0.0000000000E+00         0.2116708395E+02
      O         0.2016360550E+01         0.2016360550E+01         0.1914815593E+02
     Ba         0.0000000000E+00         0.0000000000E+00         0.2319850267E+02
     Ti         0.2016360550E+01         0.2016360550E+01         0.2517829947E+02
      O         0.0000000000E+00         0.2016360550E+01         0.2519534997E+02
      O         0.2016360550E+01         0.0000000000E+00         0.2519534997E+02
      O         0.2016360550E+01         0.2016360550E+01         0.2318601221E+02
     Ba         0.0000000000E+00         0.0000000000E+00         0.2732199717E+02
     Ti         0.2016360550E+01         0.2016360550E+01         0.2911396823E+02
      O         0.0000000000E+00         0.2016360550E+01         0.2922070215E+02
      O         0.2016360550E+01         0.0000000000E+00         0.2922070215E+02
      O         0.2016360550E+01         0.2016360550E+01         0.2723268073E+02
   23
   14    -0.1020116881E+04
     Ti         0.2016360550E+01         0.2016360550E+01         0.1322051241E+02
      O         0.0000000000E+00         0.2016360550E+01         0.1311316312E+02
      O         0.2016360550E+01         0.0000000000E+00         0.1311316312E+02
     Ba         0.0000000000E+00         0.0000000000E+00         0.1501258506E+02
     Ti         0.2016360550E+01         0.2016360550E+01         0.1715648384E+02
      O         0.0000000000E+00         0.2016360550E+01         0.1713901537E+02
      O         0.2016360550E+01         0.0000000000E+00         0.1713901537E+02
      O         0.2016360550E+01         0.2016360550E+01         0.1510125155E+02
     Ba         0.0000000000E+00         0.0000000000E+00         0.1913572637E+02
     Ti         0.2016360550E+01         0.2016360550E+01         0.2116708400E+02
      O         0.0000000000E+00         0.2016360550E+01         0.2116708395E+02
      O         0.2016360550E+01         0.0000000000E+00         0.2116708395E+02
      O         0.2016360550E+01         0.2016360550E+01         0.1914825005E+02
     Ba         0.0000000000E+00         0.0000000000E+00         0.2319844115E+02
     Ti         0.2016360550E+01         0.2016360550E+01         0.2517768341E+02
      O         0.0000000000E+00         0.2016360550E+01         0.2519515353E+02
      O         0.2016360550E+01         0.0000000000E+00         0.2519515353E+02
      O         0.2016360550E+01         0.2016360550E+01         0.2318591773E+02
     Ba         0.0000000000E+00         0.0000000000E+00         0.2732158165E+02
     Ti         0.2016360550E+01         0.2016360550E+01         0.2911365899E+02
      O         0.0000000000E+00         0.2016360550E+01         0.2922100549E+02
      O         0.2016360550E+01         0.0000000000E+00         0.2922100549E+02
      O         0.2016360550E+01         0.2016360550E+01         0.2723291816E+02
