   14
    1    -0.5873870060E+03
      H         0.1733000000E-04         0.2713120150E+01         0.1220608259E+02
     Ti         0.2016362140E+01         0.1785951510E+01         0.1319936888E+02
      O         0.1310000000E-05         0.2018236060E+01         0.1290759966E+02
      O         0.2016353510E+01         0.3967078680E+01         0.1295591888E+02
     Ba         0.1040000000E-04         0.3960049240E+01         0.1521400243E+02
      O         0.2016389310E+01         0.1944076970E+01         0.1504105511E+02
     Ti         0.2016360550E+01         0.2016360550E+01         0.1715623768E+02
      O         0.0000000000E+00         0.2016360550E+01         0.1713920380E+02
      O         0.2016360550E+01         0.0000000000E+00         0.1713920380E+02
     Ba         0.0000000000E+00         0.0000000000E+00         0.1913561581E+02
     Ti         0.2016360550E+01         0.2016360550E+01         0.2116708400E+02
      O         0.0000000000E+00         0.2016360550E+01         0.2116708499E+02
      O         0.2016360550E+01         0.0000000000E+00         0.2116708499E+02
      O         0.2016360550E+01         0.2016360550E+01         0.1914846179E+02
   14
    2    -0.5873877683E+03
      H         0.1733000000E-04         0.2715835480E+01         0.1221616649E+02
     Ti         0.2016363090E+01         0.1786993600E+01         0.1319920844E+02
      O         0.3870000000E-05         0.2021691420E+01         0.1289545176E+02
      O         0.2016352800E+01         0.3966470440E+01         0.1295594726E+02
     Ba         0.1040000000E-04         0.3959947080E+01         0.1521412979E+02
      O         0.2016389310E+01         0.1944122900E+01         0.1504115616E+02
     Ti         0.2016360550E+01         0.2016360550E+01         0.1715623768E+02
      O         0.0000000000E+00         0.2016360550E+01         0.1713920380E+02
      O         0.2016360550E+01         0.0000000000E+00         0.1713920380E+02
     Ba         0.0000000000E+00         0.0000000000E+00         0.1913561581E+02
     Ti         0.2016360550E+01         0.2016360550E+01         0.2116708400E+02
      O         0.0000000000E+00         0.2016360550E+01         0.2116708499E+02
      O         0.2016360550E+01         0.0000000000E+00         0.2116708499E+02
      O         0.2016360550E+01         0.2016360550E+01         0.1914846179E+02
   14
    3    -0.5873883749E+03
      H         0.1816000000E-04         0.2735085260E+01         0.1221529147E+02
     Ti         0.2016367320E+01         0.1789180320E+01         0.1319819421E+02
      O         0.5790000000E-05         0.2012312530E+01         0.1289164924E+02
      O         0.2016352800E+01         0.3965705340E+01         0.1295682671E+02
     Ba         0.1040000000E-04         0.3959834780E+01         0.1521444640E+02
      O         0.2016389310E+01         0.1944127450E+01         0.1504105744E+02
     Ti         0.2016360550E+01         0.2016360550E+01         0.1715623768E+02
      O         0.0000000000E+00         0.2016360550E+01         0.1713920380E+02
      O         0.2016360550E+01         0.0000000000E+00         0.1713920380E+02
     Ba         0.0000000000E+00         0.0000000000E+00         0.1913561581E+02
     Ti         0.2016360550E+01         0.2016360550E+01         0.2116708400E+02
      O         0.0000000000E+00         0.2016360550E+01         0.2116708499E+02
      O         0.2016360550E+01         0.0000000000E+00         0.2116708499E+02
      O         0.2016360550E+01         0.2016360550E+01         0.1914846179E+02
   14
    4    -0.5873889808E+03
      H         0.1816000000E-04         0.2736751310E+01         0.1223069133E+02
     Ti         0.2016367320E+01         0.1793500530E+01         0.1319816424E+02
      O         0.5790000000E-05         0.2012361930E+01         0.1289153166E+02
      O         0.2016352800E+01         0.3963274940E+01         0.1295795628E+02
     Ba         0.1040000000E-04         0.3959819480E+01         0.1521438167E+02
      O         0.2016389310E+01         0.1944115500E+01         0.1504026791E+02
     Ti         0.2016360550E+01         0.2016360550E+01         0.1715623768E+02
      O         0.0000000000E+00         0.2016360550E+01         0.1713920380E+02
      O         0.2016360550E+01         0.0000000000E+00         0.1713920380E+02
     Ba         0.0000000000E+00         0.0000000000E+00         0.1913561581E+02
     Ti         0.2016360550E+01         0.2016360550E+01         0.2116708400E+02
      O         0.0000000000E+00         0.2016360550E+01         0.2116708499E+02
      O         0.2016360550E+01         0.0000000000E+00         0.2116708499E+02
      O         0.2016360550E+01         0.2016360550E+01         0.1914846179E+02
   14
    5    -0.5873901342E+03
      H         0.1816000000E-04         0.2754594150E+01         0.1224374857E+02
     Ti         0.2016367320E+01         0.1799341150E+01         0.1320029246E+02
      O         0.5790000000E-05         0.2012468520E+01         0.1288367370E+02
      O         0.2016352800E+01         0.3960278280E+01         0.1296045359E+02
     Ba         0.1040000000E-04         0.3960037460E+01         0.1521393445E+02
      O         0.2016390140E+01         0.1944062250E+01         0.1503869625E+02
     Ti         0.2016360550E+01         0.2016360550E+01         0.1715623768E+02
      O         0.0000000000E+00         0.2016360550E+01         0.1713920380E+02
      O         0.2016360550E+01         0.0000000000E+00         0.1713920380E+02
     Ba         0.0000000000E+00         0.0000000000E+00         0.1913561581E+02
     Ti         0.2016360550E+01         0.2016360550E+01         0.2116708400E+02
      O         0.0000000000E+00         0.2016360550E+01         0.2116708499E+02
      O         0.2016360550E+01         0.0000000000E+00         0.2116708499E+02
      O         0.2016360550E+01         0.2016360550E+01         0.1914846179E+02
   14
    6    -0.5873918290E+03
      H         0.1816000000E-04         0.2783078430E+01         0.1226229844E+02
     Ti         0.2016367320E+01         0.1805905530E+01         0.1319770512E+02
      O         0.8390000000E-05         0.2012006280E+01         0.1286749910E+02
      O         0.2016352800E+01         0.3956892150E+01         0.1296517981E+02
     Ba         0.1040000000E-04         0.3960699650E+01         0.1521305154E+02
      O         0.2016390140E+01         0.1944059910E+01         0.1503636251E+02
     Ti         0.2016360550E+01         0.2016360550E+01         0.1715623768E+02
      O         0.0000000000E+00         0.2016360550E+01         0.1713920380E+02
      O         0.2016360550E+01         0.0000000000E+00         0.1713920380E+02
     Ba         0.0000000000E+00         0.0000000000E+00         0.1913561581E+02
     Ti         0.2016360550E+01         0.2016360550E+01         0.2116708400E+02
      O         0.0000000000E+00         0.2016360550E+01         0.2116708499E+02
      O         0.2016360550E+01         0.0000000000E+00         0.2116708499E+02
      O         0.2016360550E+01         0.2016360550E+01         0.1914846179E+02
   14
    7    -0.5873940829E+03
      H         0.1816000000E-04         0.2821674260E+01         0.1229094549E+02
     Ti         0.2016367320E+01         0.1814514540E+01         0.1319751565E+02
      O         0.1044000000E-04         0.2012800020E+01         0.1284127137E+02
      O         0.2016352800E+01         0.3954843200E+01         0.1297246893E+02
     Ba         0.1040000000E-04         0.3962120500E+01         0.1521215475E+02
      O         0.2016390140E+01         0.1944198000E+01         0.1503276498E+02
     Ti         0.2016360550E+01         0.2016360550E+01         0.1715623768E+02
      O         0.0000000000E+00         0.2016360550E+01         0.1713920380E+02
      O         0.2016360550E+01         0.0000000000E+00         0.1713920380E+02
     Ba         0.0000000000E+00         0.0000000000E+00         0.1913561581E+02
     Ti         0.2016360550E+01         0.2016360550E+01         0.2116708400E+02
      O         0.0000000000E+00         0.2016360550E+01         0.2116708499E+02
      O         0.2016360550E+01         0.0000000000E+00         0.2116708499E+02
      O         0.2016360550E+01         0.2016360550E+01         0.1914846179E+02
   14
    8    -0.5873955292E+03
      H         0.1816000000E-04         0.2879675400E+01         0.1231411556E+02
     Ti         0.2016370080E+01         0.1816622270E+01         0.1319192849E+02
      O         0.7850000000E-05         0.2005252930E+01         0.1280785293E+02
      O         0.2016352800E+01         0.3955416750E+01         0.1298280665E+02
     Ba         0.1040000000E-04         0.3963677470E+01         0.1521290838E+02
      O         0.2016390140E+01         0.1945138390E+01         0.1502758747E+02
     Ti         0.2016360550E+01         0.2016360550E+01         0.1715623768E+02
      O         0.0000000000E+00         0.2016360550E+01         0.1713920380E+02
      O         0.2016360550E+01         0.0000000000E+00         0.1713920380E+02
     Ba         0.0000000000E+00         0.0000000000E+00         0.1913561581E+02
     Ti         0.2016360550E+01         0.2016360550E+01         0.2116708400E+02
      O         0.0000000000E+00         0.2016360550E+01         0.2116708499E+02
      O         0.2016360550E+01         0.0000000000E+00         0.2116708499E+02
      O         0.2016360550E+01         0.2016360550E+01         0.1914846179E+02
   14
    9    -0.5873947263E+03
      H         0.1816000000E-04         0.2868040200E+01         0.1232659355E+02
     Ti         0.2016367050E+01         0.1822806820E+01         0.1318592895E+02
      O         0.1551000000E-04         0.2038674700E+01         0.1277571620E+02
      O         0.2016361590E+01         0.3948506700E+01         0.1298943424E+02
     Ba         0.1040000000E-04         0.3965503880E+01         0.1521515513E+02
      O         0.2016393500E+01         0.1946719230E+01         0.1501978101E+02
     Ti         0.2016360550E+01         0.2016360550E+01         0.1715623768E+02
      O         0.0000000000E+00         0.2016360550E+01         0.1713920380E+02
      O         0.2016360550E+01         0.0000000000E+00         0.1713920380E+02
     Ba         0.0000000000E+00         0.0000000000E+00         0.1913561581E+02
     Ti         0.2016360550E+01         0.2016360550E+01         0.2116708400E+02
      O         0.0000000000E+00         0.2016360550E+01         0.2116708499E+02
      O         0.2016360550E+01         0.0000000000E+00         0.2116708499E+02
      O         0.2016360550E+01         0.2016360550E+01         0.1914846179E+02
   14
   10    -0.5873971321E+03
      H         0.1816000000E-04         0.2882377820E+01         0.1232077744E+02
     Ti         0.2016387590E+01         0.1829158720E+01         0.1317650865E+02
      O         0.1551000000E-04         0.2017080980E+01         0.1278446809E+02
      O         0.2016361590E+01         0.3952553360E+01         0.1299037213E+02
     Ba         0.1040000000E-04         0.3967033840E+01         0.1521458294E+02
      O         0.2016393500E+01         0.1947513780E+01         0.1500889626E+02
     Ti         0.2016360550E+01         0.2016360550E+01         0.1715623768E+02
      O         0.0000000000E+00         0.2016360550E+01         0.1713920380E+02
      O         0.2016360550E+01         0.0000000000E+00         0.1713920380E+02
     Ba         0.0000000000E+00         0.0000000000E+00         0.1913561581E+02
     Ti         0.2016360550E+01         0.2016360550E+01         0.2116708400E+02
      O         0.0000000000E+00         0.2016360550E+01         0.2116708499E+02
      O         0.2016360550E+01         0.0000000000E+00         0.2116708499E+02
      O         0.2016360550E+01         0.2016360550E+01         0.1914846179E+02
   14
   11    -0.5873972645E+03
      H         0.1816000000E-04         0.2884674570E+01         0.1232224581E+02
     Ti         0.2016381660E+01         0.1828524920E+01         0.1317932341E+02
      O         0.1634000000E-04         0.2017516270E+01         0.1278249810E+02
      O         0.2016368590E+01         0.3956540960E+01         0.1298681496E+02
     Ba         0.1376000000E-04         0.3968888710E+01         0.1521246288E+02
      O         0.2016412160E+01         0.1954069030E+01         0.1500178090E+02
     Ti         0.2016360550E+01         0.2016360550E+01         0.1715623768E+02
      O         0.0000000000E+00         0.2016360550E+01         0.1713920380E+02
      O         0.2016360550E+01         0.0000000000E+00         0.1713920380E+02
     Ba         0.0000000000E+00         0.0000000000E+00         0.1913561581E+02
     Ti         0.2016360550E+01         0.2016360550E+01         0.2116708400E+02
      O         0.0000000000E+00         0.2016360550E+01         0.2116708499E+02
      O         0.2016360550E+01         0.0000000000E+00         0.2116708499E+02
      O         0.2016360550E+01         0.2016360550E+01         0.1914846179E+02
   14
   12    -0.5873975009E+03
      H         0.1816000000E-04         0.2889807940E+01         0.1232546511E+02
     Ti         0.2016381660E+01         0.1828584370E+01         0.1317840551E+02
      O         0.1754000000E-04         0.2018749600E+01         0.1277803014E+02
      O         0.2016368590E+01         0.3962622740E+01         0.1298251607E+02
     Ba         0.1946000000E-04         0.3972155340E+01         0.1521141054E+02
      O         0.2016411270E+01         0.1953650030E+01         0.1500448050E+02
     Ti         0.2016360550E+01         0.2016360550E+01         0.1715623768E+02
      O         0.0000000000E+00         0.2016360550E+01         0.1713920380E+02
      O         0.2016360550E+01         0.0000000000E+00         0.1713920380E+02
     Ba         0.0000000000E+00         0.0000000000E+00         0.1913561581E+02
     Ti         0.2016360550E+01         0.2016360550E+01         0.2116708400E+02
      O         0.0000000000E+00         0.2016360550E+01         0.2116708499E+02
      O         0.2016360550E+01         0.0000000000E+00         0.2116708499E+02
      O         0.2016360550E+01         0.2016360550E+01         0.1914846179E+02
   14
   13    -0.5873978238E+03
      H         0.1816000000E-04         0.2897853510E+01         0.1233005205E+02
     Ti         0.2016380540E+01         0.1829405140E+01         0.1317664594E+02
      O         0.2013000000E-04         0.2021353140E+01         0.1277119463E+02
      O         0.2016372200E+01         0.3961947450E+01         0.1298248928E+02
     Ba         0.1946000000E-04         0.3972370600E+01         0.1521206895E+02
      O         0.2016410550E+01         0.1953627130E+01         0.1500582013E+02
     Ti         0.2016360550E+01         0.2016360550E+01         0.1715623768E+02
      O         0.0000000000E+00         0.2016360550E+01         0.1713920380E+02
      O         0.2016360550E+01         0.0000000000E+00         0.1713920380E+02
     Ba         0.0000000000E+00         0.0000000000E+00         0.1913561581E+02
     Ti         0.2016360550E+01         0.2016360550E+01         0.2116708400E+02
      O         0.0000000000E+00         0.2016360550E+01         0.2116708499E+02
      O         0.2016360550E+01         0.0000000000E+00         0.2116708499E+02
      O         0.2016360550E+01         0.2016360550E+01         0.1914846179E+02
   14
   14    -0.5873982410E+03
      H         0.1816000000E-04         0.2909716090E+01         0.1233580206E+02
     Ti         0.2016383730E+01         0.1831257000E+01         0.1317480995E+02
      O         0.2013000000E-04         0.2025535070E+01         0.1276162453E+02
      O         0.2016373340E+01         0.3962032840E+01         0.1298263331E+02
     Ba         0.1946000000E-04         0.3972947350E+01         0.1521320595E+02
      O         0.2016409860E+01         0.1953583140E+01         0.1500606995E+02
     Ti         0.2016360550E+01         0.2016360550E+01         0.1715623768E+02
      O         0.0000000000E+00         0.2016360550E+01         0.1713920380E+02
      O         0.2016360550E+01         0.0000000000E+00         0.1713920380E+02
     Ba         0.0000000000E+00         0.0000000000E+00         0.1913561581E+02
     Ti         0.2016360550E+01         0.2016360550E+01         0.2116708400E+02
      O         0.0000000000E+00         0.2016360550E+01         0.2116708499E+02
      O         0.2016360550E+01         0.0000000000E+00         0.2116708499E+02
      O         0.2016360550E+01         0.2016360550E+01         0.1914846179E+02
   14
   15    -0.5873987343E+03
      H         0.1816000000E-04         0.2925621940E+01         0.1234344316E+02
     Ti         0.2016383730E+01         0.1834132550E+01         0.1317331799E+02
      O         0.2374000000E-04         0.2033083520E+01         0.1275040194E+02
      O         0.2016374810E+01         0.3962826720E+01         0.1298318904E+02
     Ba         0.1946000000E-04         0.3974213910E+01         0.1521443151E+02
      O         0.2016409860E+01         0.1953583140E+01         0.1500582013E+02
     Ti         0.2016360550E+01         0.2016360550E+01         0.1715623768E+02
      O         0.0000000000E+00         0.2016360550E+01         0.1713920380E+02
      O         0.2016360550E+01         0.0000000000E+00         0.1713920380E+02
     Ba         0.0000000000E+00         0.0000000000E+00         0.1913561581E+02
     Ti         0.2016360550E+01         0.2016360550E+01         0.2116708400E+02
      O         0.0000000000E+00         0.2016360550E+01         0.2116708499E+02
      O         0.2016360550E+01         0.0000000000E+00         0.2116708499E+02
      O         0.2016360550E+01         0.2016360550E+01         0.1914846179E+02
   14
   16    -0.5873992226E+03
      H         0.2266000000E-04         0.2947394910E+01         0.1235053129E+02
     Ti         0.2016383730E+01         0.1837635790E+01         0.1317091426E+02
      O         0.2374000000E-04         0.2045454870E+01         0.1274143828E+02
      O         0.2016378770E+01         0.3965154990E+01         0.1298446205E+02
     Ba         0.1946000000E-04         0.3976032750E+01         0.1521571747E+02
      O         0.2016409860E+01         0.1953668930E+01         0.1500488793E+02
     Ti         0.2016360550E+01         0.2016360550E+01         0.1715623768E+02
      O         0.0000000000E+00         0.2016360550E+01         0.1713920380E+02
      O         0.2016360550E+01         0.0000000000E+00         0.1713920380E+02
     Ba         0.0000000000E+00         0.0000000000E+00         0.1913561581E+02
     Ti         0.2016360550E+01         0.2016360550E+01         0.2116708400E+02
      O         0.0000000000E+00         0.2016360550E+01         0.2116708499E+02
      O         0.2016360550E+01         0.0000000000E+00         0.2116708499E+02
      O         0.2016360550E+01         0.2016360550E+01         0.1914846179E+02
   14
   17    -0.5873995933E+03
      H         0.2266000000E-04         0.2968455850E+01         0.1236605217E+02
     Ti         0.2016390150E+01         0.1843099390E+01         0.1316918755E+02
      O         0.1959000000E-04         0.2063503310E+01         0.1273472548E+02
      O         0.2016378770E+01         0.3969992520E+01         0.1298589214E+02
     Ba         0.1946000000E-04         0.3977099600E+01         0.1521764541E+02
      O         0.2016409860E+01         0.1953988770E+01         0.1500302621E+02
     Ti         0.2016360550E+01         0.2016360550E+01         0.1715623768E+02
      O         0.0000000000E+00         0.2016360550E+01         0.1713920380E+02
      O         0.2016360550E+01         0.0000000000E+00         0.1713920380E+02
     Ba         0.0000000000E+00         0.0000000000E+00         0.1913561581E+02
     Ti         0.2016360550E+01         0.2016360550E+01         0.2116708400E+02
      O         0.0000000000E+00         0.2016360550E+01         0.2116708499E+02
      O         0.2016360550E+01         0.0000000000E+00         0.2116708499E+02
      O         0.2016360550E+01         0.2016360550E+01         0.1914846179E+02
