   14
    1    -0.5873634971E+03
      H         0.1846000000E-04         0.2016415140E+01         0.1202828890E+02
     Ti         0.2016408380E+01         0.2014900030E+01         0.1324688596E+02
      O         0.2011000000E-04         0.2016269110E+01         0.1300353736E+02
      O         0.2016364560E+01         0.4010500000E-03         0.1300581038E+02
     Ba         0.9966000000E-04        -0.3889000000E-03         0.1519604564E+02
      O         0.2016403450E+01         0.2016269810E+01         0.1508089153E+02
     Ti         0.2016360550E+01         0.2016360550E+01         0.1715623768E+02
      O         0.0000000000E+00         0.2016360550E+01         0.1713920380E+02
      O         0.2016360550E+01         0.0000000000E+00         0.1713920380E+02
     Ba         0.0000000000E+00         0.0000000000E+00         0.1913561581E+02
     Ti         0.2016360550E+01         0.2016360550E+01         0.2116708400E+02
      O         0.0000000000E+00         0.2016360550E+01         0.2116708499E+02
      O         0.2016360550E+01         0.0000000000E+00         0.2116708499E+02
      O         0.2016360550E+01         0.2016360550E+01         0.1914846179E+02
   14
    2    -0.5873635536E+03
      H         0.1846000000E-04         0.2016435230E+01         0.1202335755E+02
     Ti         0.2016403220E+01         0.2014806600E+01         0.1324626870E+02
      O         0.2556000000E-04         0.2016320170E+01         0.1300334078E+02
      O         0.2016366930E+01         0.4275700000E-03         0.1300597228E+02
     Ba         0.9028000000E-04        -0.3792700000E-03         0.1519606450E+02
      O         0.2016406130E+01         0.2016268740E+01         0.1508092075E+02
     Ti         0.2016360550E+01         0.2016360550E+01         0.1715623768E+02
      O         0.0000000000E+00         0.2016360550E+01         0.1713920380E+02
      O         0.2016360550E+01         0.0000000000E+00         0.1713920380E+02
     Ba         0.0000000000E+00         0.0000000000E+00         0.1913561581E+02
     Ti         0.2016360550E+01         0.2016360550E+01         0.2116708400E+02
      O         0.0000000000E+00         0.2016360550E+01         0.2116708499E+02
      O         0.2016360550E+01         0.0000000000E+00         0.2116708499E+02
      O         0.2016360550E+01         0.2016360550E+01         0.1914846179E+02
   14
    3    -0.5873636673E+03
      H         0.1967000000E-04         0.2016456680E+01         0.1202275522E+02
     Ti         0.2016398620E+01         0.2014550390E+01         0.1324505716E+02
      O         0.2637000000E-04         0.2016373210E+01         0.1299719990E+02
      O         0.2016372980E+01         0.5177000000E-03         0.1300627017E+02
     Ba         0.8795000000E-04        -0.3776000000E-03         0.1519604853E+02
      O         0.2016406750E+01         0.2016268740E+01         0.1508089162E+02
     Ti         0.2016360550E+01         0.2016360550E+01         0.1715623768E+02
      O         0.0000000000E+00         0.2016360550E+01         0.1713920380E+02
      O         0.2016360550E+01         0.0000000000E+00         0.1713920380E+02
     Ba         0.0000000000E+00         0.0000000000E+00         0.1913561581E+02
     Ti         0.2016360550E+01         0.2016360550E+01         0.2116708400E+02
      O         0.0000000000E+00         0.2016360550E+01         0.2116708499E+02
      O         0.2016360550E+01         0.0000000000E+00         0.2116708499E+02
      O         0.2016360550E+01         0.2016360550E+01         0.1914846179E+02
   14
    4    -0.5873638366E+03
      H         0.2324000000E-04         0.2016490610E+01         0.1201489228E+02
     Ti         0.2016383880E+01         0.2013646040E+01         0.1324452200E+02
      O         0.4180000000E-04         0.2016588570E+01         0.1298898608E+02
      O         0.2016372980E+01         0.7127800000E-03         0.1300670476E+02
     Ba         0.8157000000E-04        -0.3800200000E-03         0.1519596299E+02
      O         0.2016407910E+01         0.2016268740E+01         0.1508050404E+02
     Ti         0.2016360550E+01         0.2016360550E+01         0.1715623768E+02
      O         0.0000000000E+00         0.2016360550E+01         0.1713920380E+02
      O         0.2016360550E+01         0.0000000000E+00         0.1713920380E+02
     Ba         0.0000000000E+00         0.0000000000E+00         0.1913561581E+02
     Ti         0.2016360550E+01         0.2016360550E+01         0.2116708400E+02
      O         0.0000000000E+00         0.2016360550E+01         0.2116708499E+02
      O         0.2016360550E+01         0.0000000000E+00         0.2116708499E+02
      O         0.2016360550E+01         0.2016360550E+01         0.1914846179E+02
   14
    5    -0.5873640901E+03
      H         0.2593000000E-04         0.2016581600E+01         0.1199928232E+02
     Ti         0.2016398040E+01         0.2013154670E+01         0.1324297774E+02
      O         0.1172000000E-04         0.2016682070E+01         0.1297746358E+02
      O         0.2016375910E+01         0.1048290000E-02         0.1300748320E+02
     Ba         0.7310000000E-04         0.4032310860E+01         0.1519576356E+02
      O         0.2016410010E+01         0.2016264550E+01         0.1507965715E+02
     Ti         0.2016360550E+01         0.2016360550E+01         0.1715623768E+02
      O         0.0000000000E+00         0.2016360550E+01         0.1713920380E+02
      O         0.2016360550E+01         0.0000000000E+00         0.1713920380E+02
     Ba         0.0000000000E+00         0.0000000000E+00         0.1913561581E+02
     Ti         0.2016360550E+01         0.2016360550E+01         0.2116708400E+02
      O         0.0000000000E+00         0.2016360550E+01         0.2116708499E+02
      O         0.2016360550E+01         0.0000000000E+00         0.2116708499E+02
      O         0.2016360550E+01         0.2016360550E+01         0.1914846179E+02
   14
    6    -0.5873643851E+03
      H         0.3066000000E-04         0.2016925160E+01         0.1198020919E+02
     Ti         0.2016380550E+01         0.2012498220E+01         0.1324001279E+02
      O         0.5041000000E-04         0.2016742240E+01         0.1295543602E+02
      O         0.2016370950E+01         0.1488060000E-02         0.1300868926E+02
     Ba         0.6351000000E-04         0.4032263520E+01         0.1519540398E+02
      O         0.2016412420E+01         0.2016264550E+01         0.1507817878E+02
     Ti         0.2016360550E+01         0.2016360550E+01         0.1715623768E+02
      O         0.0000000000E+00         0.2016360550E+01         0.1713920380E+02
      O         0.2016360550E+01         0.0000000000E+00         0.1713920380E+02
     Ba         0.0000000000E+00         0.0000000000E+00         0.1913561581E+02
     Ti         0.2016360550E+01         0.2016360550E+01         0.2116708400E+02
      O         0.0000000000E+00         0.2016360550E+01         0.2116708499E+02
      O         0.2016360550E+01         0.0000000000E+00         0.2116708499E+02
      O         0.2016360550E+01         0.2016360550E+01         0.1914846179E+02
   14
    7    -0.5873648614E+03
      H         0.4268000000E-04         0.2017200920E+01         0.1195237189E+02
     Ti         0.2016417370E+01         0.2011565940E+01         0.1323511957E+02
      O        -0.1415700000E-03         0.2016695560E+01         0.1292734672E+02
      O         0.2016382640E+01         0.2029780000E-02         0.1301061973E+02
     Ba         0.5291000000E-04         0.4032194380E+01         0.1519482388E+02
      O         0.2016413450E+01         0.2016272910E+01         0.1507565708E+02
     Ti         0.2016360550E+01         0.2016360550E+01         0.1715623768E+02
      O         0.0000000000E+00         0.2016360550E+01         0.1713920380E+02
      O         0.2016360550E+01         0.0000000000E+00         0.1713920380E+02
     Ba         0.0000000000E+00         0.0000000000E+00         0.1913561581E+02
     Ti         0.2016360550E+01         0.2016360550E+01         0.2116708400E+02
      O         0.0000000000E+00         0.2016360550E+01         0.2116708499E+02
      O         0.2016360550E+01         0.0000000000E+00         0.2116708499E+02
      O         0.2016360550E+01         0.2016360550E+01         0.1914846179E+02
   14
    8    -0.5873616492E+03
      H         0.1090000000E-05         0.2017753770E+01         0.1191541359E+02
     Ti         0.2016210590E+01         0.2009986140E+01         0.1322749835E+02
      O        -0.9830000000E-04         0.2017193900E+01         0.1294054901E+02
      O         0.2016288400E+01         0.3015720000E-02         0.1301338377E+02
     Ba         0.4676000000E-04         0.4032093690E+01         0.1519392452E+02
      O         0.2016410130E+01         0.2016296120E+01         0.1507163243E+02
     Ti         0.2016360550E+01         0.2016360550E+01         0.1715623768E+02
      O         0.0000000000E+00         0.2016360550E+01         0.1713920380E+02
      O         0.2016360550E+01         0.0000000000E+00         0.1713920380E+02
     Ba         0.0000000000E+00         0.0000000000E+00         0.1913561581E+02
     Ti         0.2016360550E+01         0.2016360550E+01         0.2116708400E+02
      O         0.0000000000E+00         0.2016360550E+01         0.2116708499E+02
      O         0.2016360550E+01         0.0000000000E+00         0.2116708499E+02
      O         0.2016360550E+01         0.2016360550E+01         0.1914846179E+02
   14
    9    -0.5873649913E+03
      H        -0.1401000000E-04         0.2017819090E+01         0.1195237077E+02
     Ti         0.2016262320E+01         0.2009257770E+01         0.1322927689E+02
      O        -0.8903000000E-04         0.2017175450E+01         0.1292734609E+02
      O         0.2016282650E+01         0.3292410000E-02         0.1301200278E+02
     Ba         0.2674000000E-04         0.4031950920E+01         0.1519252124E+02
      O         0.2016401230E+01         0.2016395400E+01         0.1506615003E+02
     Ti         0.2016360550E+01         0.2016360550E+01         0.1715623768E+02
      O         0.0000000000E+00         0.2016360550E+01         0.1713920380E+02
      O         0.2016360550E+01         0.0000000000E+00         0.1713920380E+02
     Ba         0.0000000000E+00         0.0000000000E+00         0.1913561581E+02
     Ti         0.2016360550E+01         0.2016360550E+01         0.2116708400E+02
      O         0.0000000000E+00         0.2016360550E+01         0.2116708499E+02
      O         0.2016360550E+01         0.0000000000E+00         0.2116708499E+02
      O         0.2016360550E+01         0.2016360550E+01         0.1914846179E+02
   14
   10    -0.5873649629E+03
      H        -0.1801000000E-04         0.2017870930E+01         0.1194999136E+02
     Ti         0.2016275060E+01         0.2008840600E+01         0.1322854822E+02
      O        -0.1003900000E-03         0.2017399240E+01         0.1293028571E+02
      O         0.2016282650E+01         0.3961290000E-02         0.1300961577E+02
     Ba         0.1320000000E-05         0.4031669980E+01         0.1519075680E+02
      O         0.2016248760E+01         0.2017498090E+01         0.1506076990E+02
     Ti         0.2016360550E+01         0.2016360550E+01         0.1715623768E+02
      O         0.0000000000E+00         0.2016360550E+01         0.1713920380E+02
      O         0.2016360550E+01         0.0000000000E+00         0.1713920380E+02
     Ba         0.0000000000E+00         0.0000000000E+00         0.1913561581E+02
     Ti         0.2016360550E+01         0.2016360550E+01         0.2116708400E+02
      O         0.0000000000E+00         0.2016360550E+01         0.2116708499E+02
      O         0.2016360550E+01         0.0000000000E+00         0.2116708499E+02
      O         0.2016360550E+01         0.2016360550E+01         0.1914846179E+02
   14
   11    -0.5873650507E+03
      H        -0.1973000000E-04         0.2017897010E+01         0.1195040284E+02
     Ti         0.2016278200E+01         0.2008061880E+01         0.1322529919E+02
      O        -0.1003900000E-03         0.2017474620E+01         0.1293000558E+02
      O         0.2016303650E+01         0.4701870000E-02         0.1300614663E+02
     Ba        -0.4984000000E-04         0.4031601610E+01         0.1518876123E+02
      O         0.2016258830E+01         0.2017397350E+01         0.1506240022E+02
     Ti         0.2016360550E+01         0.2016360550E+01         0.1715623768E+02
      O         0.0000000000E+00         0.2016360550E+01         0.1713920380E+02
      O         0.2016360550E+01         0.0000000000E+00         0.1713920380E+02
     Ba         0.0000000000E+00         0.0000000000E+00         0.1913561581E+02
     Ti         0.2016360550E+01         0.2016360550E+01         0.2116708400E+02
      O         0.0000000000E+00         0.2016360550E+01         0.2116708499E+02
      O         0.2016360550E+01         0.0000000000E+00         0.2116708499E+02
      O         0.2016360550E+01         0.2016360550E+01         0.1914846179E+02
   14
   12    -0.5873650996E+03
      H        -0.2115000000E-04         0.2017924300E+01         0.1195057487E+02
     Ti         0.2016278200E+01         0.2005200700E+01         0.1322312721E+02
      O        -0.1003900000E-03         0.2017764010E+01         0.1292987927E+02
      O         0.2016325140E+01         0.5287550000E-02         0.1300207464E+02
     Ba        -0.4039000000E-04         0.4031346140E+01         0.1518656381E+02
      O         0.2016266310E+01         0.2017324650E+01         0.1506265784E+02
     Ti         0.2016360550E+01         0.2016360550E+01         0.1715623768E+02
      O         0.0000000000E+00         0.2016360550E+01         0.1713920380E+02
      O         0.2016360550E+01         0.0000000000E+00         0.1713920380E+02
     Ba         0.0000000000E+00         0.0000000000E+00         0.1913561581E+02
     Ti         0.2016360550E+01         0.2016360550E+01         0.2116708400E+02
      O         0.0000000000E+00         0.2016360550E+01         0.2116708499E+02
      O         0.2016360550E+01         0.0000000000E+00         0.2116708499E+02
      O         0.2016360550E+01         0.2016360550E+01         0.1914846179E+02
   14
   13    -0.5873650901E+03
      H        -0.2256000000E-04         0.2017961820E+01         0.1195064201E+02
     Ti         0.2016289370E+01         0.2002514870E+01         0.1322415221E+02
      O        -0.9931000000E-04         0.2018084750E+01         0.1293003612E+02
      O         0.2016306780E+01         0.6500800000E-02         0.1300205199E+02
     Ba        -0.4039000000E-04         0.4031303590E+01         0.1518657053E+02
      O         0.2016270320E+01         0.2017281310E+01         0.1506245814E+02
     Ti         0.2016360550E+01         0.2016360550E+01         0.1715623768E+02
      O         0.0000000000E+00         0.2016360550E+01         0.1713920380E+02
      O         0.2016360550E+01         0.0000000000E+00         0.1713920380E+02
     Ba         0.0000000000E+00         0.0000000000E+00         0.1913561581E+02
     Ti         0.2016360550E+01         0.2016360550E+01         0.2116708400E+02
      O         0.0000000000E+00         0.2016360550E+01         0.2116708499E+02
      O         0.2016360550E+01         0.0000000000E+00         0.2116708499E+02
      O         0.2016360550E+01         0.2016360550E+01         0.1914846179E+02
   14
   14    -0.5873651117E+03
      H        -0.2510000000E-04         0.2018048720E+01         0.1195084609E+02
     Ti         0.2016274820E+01         0.1999291090E+01         0.1322299465E+02
      O        -0.9364000000E-04         0.2018608420E+01         0.1293004970E+02
      O         0.2016306780E+01         0.8423150000E-02         0.1300231645E+02
     Ba        -0.4039000000E-04         0.4031163070E+01         0.1518666148E+02
      O         0.2016273850E+01         0.2017248560E+01         0.1506239915E+02
     Ti         0.2016360550E+01         0.2016360550E+01         0.1715623768E+02
      O         0.0000000000E+00         0.2016360550E+01         0.1713920380E+02
      O         0.2016360550E+01         0.0000000000E+00         0.1713920380E+02
     Ba         0.0000000000E+00         0.0000000000E+00         0.1913561581E+02
     Ti         0.2016360550E+01         0.2016360550E+01         0.2116708400E+02
      O         0.0000000000E+00         0.2016360550E+01         0.2116708499E+02
      O         0.2016360550E+01         0.0000000000E+00         0.2116708499E+02
      O         0.2016360550E+01         0.2016360550E+01         0.1914846179E+02
   14
   15    -0.5873651130E+03
      H        -0.2936000000E-04         0.2018287660E+01         0.1195100628E+02
     Ti         0.2016292710E+01         0.1995582990E+01         0.1322446159E+02
      O        -0.9481000000E-04         0.2019437670E+01         0.1293010286E+02
      O         0.2016306780E+01         0.1031114000E-01         0.1300107947E+02
     Ba        -0.4150000000E-04         0.4030857530E+01         0.1518670666E+02
      O         0.2016278860E+01         0.2017224320E+01         0.1506211341E+02
     Ti         0.2016360550E+01         0.2016360550E+01         0.1715623768E+02
      O         0.0000000000E+00         0.2016360550E+01         0.1713920380E+02
      O         0.2016360550E+01         0.0000000000E+00         0.1713920380E+02
     Ba         0.0000000000E+00         0.0000000000E+00         0.1913561581E+02
     Ti         0.2016360550E+01         0.2016360550E+01         0.2116708400E+02
      O         0.0000000000E+00         0.2016360550E+01         0.2116708499E+02
      O         0.2016360550E+01         0.0000000000E+00         0.2116708499E+02
      O         0.2016360550E+01         0.2016360550E+01         0.1914846179E+02
   14
   16    -0.5873651626E+03
      H        -0.3366000000E-04         0.2018678520E+01         0.1195112048E+02
     Ti         0.2016276990E+01         0.1991647360E+01         0.1322243496E+02
      O        -0.7946000000E-04         0.2020652250E+01         0.1293009395E+02
      O         0.2016306780E+01         0.1352625000E-01         0.1300069277E+02
     Ba        -0.4150000000E-04         0.4030400400E+01         0.1518693709E+02
      O         0.2016282740E+01         0.2017218790E+01         0.1506212399E+02
     Ti         0.2016360550E+01         0.2016360550E+01         0.1715623768E+02
      O         0.0000000000E+00         0.2016360550E+01         0.1713920380E+02
      O         0.2016360550E+01         0.0000000000E+00         0.1713920380E+02
     Ba         0.0000000000E+00         0.0000000000E+00         0.1913561581E+02
     Ti         0.2016360550E+01         0.2016360550E+01         0.2116708400E+02
      O         0.0000000000E+00         0.2016360550E+01         0.2116708499E+02
      O         0.2016360550E+01         0.0000000000E+00         0.2116708499E+02
      O         0.2016360550E+01         0.2016360550E+01         0.1914846179E+02
   14
   17    -0.5873652097E+03
      H        -0.4044000000E-04         0.2019099210E+01         0.1195092492E+02
     Ti         0.2016289570E+01         0.1986937640E+01         0.1322425372E+02
      O        -0.6609000000E-04         0.2021826200E+01         0.1292917668E+02
      O         0.2016306780E+01         0.1735626000E-01         0.1299762984E+02
     Ba        -0.4150000000E-04         0.4029666610E+01         0.1518698025E+02
      O         0.2016282740E+01         0.2017220050E+01         0.1506211297E+02
     Ti         0.2016360550E+01         0.2016360550E+01         0.1715623768E+02
      O         0.0000000000E+00         0.2016360550E+01         0.1713920380E+02
      O         0.2016360550E+01         0.0000000000E+00         0.1713920380E+02
     Ba         0.0000000000E+00         0.0000000000E+00         0.1913561581E+02
     Ti         0.2016360550E+01         0.2016360550E+01         0.2116708400E+02
      O         0.0000000000E+00         0.2016360550E+01         0.2116708499E+02
      O         0.2016360550E+01         0.0000000000E+00         0.2116708499E+02
      O         0.2016360550E+01         0.2016360550E+01         0.1914846179E+02
   14
   18    -0.5873653054E+03
      H        -0.4172000000E-04         0.2019363370E+01         0.1195015662E+02
     Ti         0.2016292300E+01         0.1981024290E+01         0.1322185808E+02
      O        -0.6017000000E-04         0.2022536420E+01         0.1292973988E+02
      O         0.2016306780E+01         0.2439760000E-01         0.1299546229E+02
     Ba        -0.4150000000E-04         0.4028714860E+01         0.1518745152E+02
      O         0.2016285740E+01         0.2017270240E+01         0.1506205641E+02
     Ti         0.2016360550E+01         0.2016360550E+01         0.1715623768E+02
      O         0.0000000000E+00         0.2016360550E+01         0.1713920380E+02
      O         0.2016360550E+01         0.0000000000E+00         0.1713920380E+02
     Ba         0.0000000000E+00         0.0000000000E+00         0.1913561581E+02
     Ti         0.2016360550E+01         0.2016360550E+01         0.2116708400E+02
      O         0.0000000000E+00         0.2016360550E+01         0.2116708499E+02
      O         0.2016360550E+01         0.0000000000E+00         0.2116708499E+02
      O         0.2016360550E+01         0.2016360550E+01         0.1914846179E+02
   14
   19    -0.5873654180E+03
      H        -0.4172000000E-04         0.2019447290E+01         0.1195031484E+02
     Ti         0.2016295320E+01         0.1972645820E+01         0.1322339056E+02
      O        -0.5951000000E-04         0.2022629770E+01         0.1292952373E+02
      O         0.2016301300E+01         0.3317705000E-01         0.1298906292E+02
     Ba        -0.4150000000E-04         0.4027309980E+01         0.1518779063E+02
      O         0.2016288850E+01         0.2017396930E+01         0.1506171913E+02
     Ti         0.2016360550E+01         0.2016360550E+01         0.1715623768E+02
      O         0.0000000000E+00         0.2016360550E+01         0.1713920380E+02
      O         0.2016360550E+01         0.0000000000E+00         0.1713920380E+02
     Ba         0.0000000000E+00         0.0000000000E+00         0.1913561581E+02
     Ti         0.2016360550E+01         0.2016360550E+01         0.2116708400E+02
      O         0.0000000000E+00         0.2016360550E+01         0.2116708499E+02
      O         0.2016360550E+01         0.0000000000E+00         0.2116708499E+02
      O         0.2016360550E+01         0.2016360550E+01         0.1914846179E+02
