   15
    1    -0.6193282911E+03
      H         0.4973616000E-01         0.2030403910E+01         0.1212526262E+02
      O         0.1964985550E+01         0.2068319640E+01         0.1144015781E+02
     Ti         0.2016360550E+01         0.2016360550E+01         0.1322248758E+02
      O         0.0000000000E+00         0.2016360550E+01         0.1311393058E+02
      O         0.2016360550E+01         0.0000000000E+00         0.1311393058E+02
     Ba         0.0000000000E+00         0.0000000000E+00         0.1501865529E+02
     Ti         0.2016360550E+01         0.2016360550E+01         0.1714788483E+02
      O         0.0000000000E+00         0.2016360550E+01         0.1713259029E+02
      O         0.2016360550E+01         0.0000000000E+00         0.1713259029E+02
      O         0.2016360550E+01         0.2016360550E+01         0.1510469579E+02
     Ba         0.0000000000E+00         0.0000000000E+00         0.1913561581E+02
     Ti         0.2016360550E+01         0.2016360550E+01         0.2116708400E+02
      O         0.0000000000E+00         0.2016360550E+01         0.2116708499E+02
      O         0.2016360550E+01         0.0000000000E+00         0.2116708499E+02
      O         0.2016360550E+01         0.2016360550E+01         0.1914846179E+02
   15
    2    -0.6193302633E+03
      H         0.4750713000E-01         0.2030713670E+01         0.1212477659E+02
      O         0.1966085840E+01         0.2069021450E+01         0.1141512777E+02
     Ti         0.2016360550E+01         0.2016360550E+01         0.1322248758E+02
      O         0.0000000000E+00         0.2016360550E+01         0.1311393058E+02
      O         0.2016360550E+01         0.0000000000E+00         0.1311393058E+02
     Ba         0.0000000000E+00         0.0000000000E+00         0.1501865529E+02
     Ti         0.2016360550E+01         0.2016360550E+01         0.1714788483E+02
      O         0.0000000000E+00         0.2016360550E+01         0.1713259029E+02
      O         0.2016360550E+01         0.0000000000E+00         0.1713259029E+02
      O         0.2016360550E+01         0.2016360550E+01         0.1510469579E+02
     Ba         0.0000000000E+00         0.0000000000E+00         0.1913561581E+02
     Ti         0.2016360550E+01         0.2016360550E+01         0.2116708400E+02
      O         0.0000000000E+00         0.2016360550E+01         0.2116708499E+02
      O         0.2016360550E+01         0.0000000000E+00         0.2116708499E+02
      O         0.2016360550E+01         0.2016360550E+01         0.1914846179E+02
   15
    3    -0.6193318752E+03
      H         0.4293182000E-01         0.2031431930E+01         0.1212266854E+02
      O         0.1969304430E+01         0.2070146360E+01         0.1137013626E+02
     Ti         0.2016360550E+01         0.2016360550E+01         0.1322248758E+02
      O         0.0000000000E+00         0.2016360550E+01         0.1311393058E+02
      O         0.2016360550E+01         0.0000000000E+00         0.1311393058E+02
     Ba         0.0000000000E+00         0.0000000000E+00         0.1501865529E+02
     Ti         0.2016360550E+01         0.2016360550E+01         0.1714788483E+02
      O         0.0000000000E+00         0.2016360550E+01         0.1713259029E+02
      O         0.2016360550E+01         0.0000000000E+00         0.1713259029E+02
      O         0.2016360550E+01         0.2016360550E+01         0.1510469579E+02
     Ba         0.0000000000E+00         0.0000000000E+00         0.1913561581E+02
     Ti         0.2016360550E+01         0.2016360550E+01         0.2116708400E+02
      O         0.0000000000E+00         0.2016360550E+01         0.2116708499E+02
      O         0.2016360550E+01         0.0000000000E+00         0.2116708499E+02
      O         0.2016360550E+01         0.2016360550E+01         0.1914846179E+02
   15
    4    -0.6193319103E+03
      H         0.3570697000E-01         0.2032758220E+01         0.1211935755E+02
      O         0.1972660620E+01         0.2069457220E+01         0.1137017675E+02
     Ti         0.2016360550E+01         0.2016360550E+01         0.1322248758E+02
      O         0.0000000000E+00         0.2016360550E+01         0.1311393058E+02
      O         0.2016360550E+01         0.0000000000E+00         0.1311393058E+02
     Ba         0.0000000000E+00         0.0000000000E+00         0.1501865529E+02
     Ti         0.2016360550E+01         0.2016360550E+01         0.1714788483E+02
      O         0.0000000000E+00         0.2016360550E+01         0.1713259029E+02
      O         0.2016360550E+01         0.0000000000E+00         0.1713259029E+02
      O         0.2016360550E+01         0.2016360550E+01         0.1510469579E+02
     Ba         0.0000000000E+00         0.0000000000E+00         0.1913561581E+02
     Ti         0.2016360550E+01         0.2016360550E+01         0.2116708400E+02
      O         0.0000000000E+00         0.2016360550E+01         0.2116708499E+02
      O         0.2016360550E+01         0.0000000000E+00         0.2116708499E+02
      O         0.2016360550E+01         0.2016360550E+01         0.1914846179E+02
   15
    5    -0.6193319375E+03
      H         0.3254109000E-01         0.2033285910E+01         0.1212361158E+02
      O         0.1976981740E+01         0.2068516530E+01         0.1136941414E+02
     Ti         0.2016360550E+01         0.2016360550E+01         0.1322248758E+02
      O         0.0000000000E+00         0.2016360550E+01         0.1311393058E+02
      O         0.2016360550E+01         0.0000000000E+00         0.1311393058E+02
     Ba         0.0000000000E+00         0.0000000000E+00         0.1501865529E+02
     Ti         0.2016360550E+01         0.2016360550E+01         0.1714788483E+02
      O         0.0000000000E+00         0.2016360550E+01         0.1713259029E+02
      O         0.2016360550E+01         0.0000000000E+00         0.1713259029E+02
      O         0.2016360550E+01         0.2016360550E+01         0.1510469579E+02
     Ba         0.0000000000E+00         0.0000000000E+00         0.1913561581E+02
     Ti         0.2016360550E+01         0.2016360550E+01         0.2116708400E+02
      O         0.0000000000E+00         0.2016360550E+01         0.2116708499E+02
      O         0.2016360550E+01         0.0000000000E+00         0.2116708499E+02
      O         0.2016360550E+01         0.2016360550E+01         0.1914846179E+02
   15
    6    -0.6193319379E+03
      H         0.3163196000E-01         0.2033490160E+01         0.1212222779E+02
      O         0.1980678980E+01         0.2067186010E+01         0.1137164255E+02
     Ti         0.2016360550E+01         0.2016360550E+01         0.1322248758E+02
      O         0.0000000000E+00         0.2016360550E+01         0.1311393058E+02
      O         0.2016360550E+01         0.0000000000E+00         0.1311393058E+02
     Ba         0.0000000000E+00         0.0000000000E+00         0.1501865529E+02
     Ti         0.2016360550E+01         0.2016360550E+01         0.1714788483E+02
      O         0.0000000000E+00         0.2016360550E+01         0.1713259029E+02
      O         0.2016360550E+01         0.0000000000E+00         0.1713259029E+02
      O         0.2016360550E+01         0.2016360550E+01         0.1510469579E+02
     Ba         0.0000000000E+00         0.0000000000E+00         0.1913561581E+02
     Ti         0.2016360550E+01         0.2016360550E+01         0.2116708400E+02
      O         0.0000000000E+00         0.2016360550E+01         0.2116708499E+02
      O         0.2016360550E+01         0.0000000000E+00         0.2116708499E+02
      O         0.2016360550E+01         0.2016360550E+01         0.1914846179E+02
   15
    7    -0.6193319481E+03
      H         0.2917003000E-01         0.2033932160E+01         0.1212115065E+02
      O         0.1980869340E+01         0.2067059590E+01         0.1137082320E+02
     Ti         0.2016360550E+01         0.2016360550E+01         0.1322248758E+02
      O         0.0000000000E+00         0.2016360550E+01         0.1311393058E+02
      O         0.2016360550E+01         0.0000000000E+00         0.1311393058E+02
     Ba         0.0000000000E+00         0.0000000000E+00         0.1501865529E+02
     Ti         0.2016360550E+01         0.2016360550E+01         0.1714788483E+02
      O         0.0000000000E+00         0.2016360550E+01         0.1713259029E+02
      O         0.2016360550E+01         0.0000000000E+00         0.1713259029E+02
      O         0.2016360550E+01         0.2016360550E+01         0.1510469579E+02
     Ba         0.0000000000E+00         0.0000000000E+00         0.1913561581E+02
     Ti         0.2016360550E+01         0.2016360550E+01         0.2116708400E+02
      O         0.0000000000E+00         0.2016360550E+01         0.2116708499E+02
      O         0.2016360550E+01         0.0000000000E+00         0.2116708499E+02
      O         0.2016360550E+01         0.2016360550E+01         0.1914846179E+02
   15
    8    -0.6193319659E+03
      H         0.2604565000E-01         0.2034483880E+01         0.1212194288E+02
      O         0.1981594840E+01         0.2066681690E+01         0.1136970283E+02
     Ti         0.2016360550E+01         0.2016360550E+01         0.1322248758E+02
      O         0.0000000000E+00         0.2016360550E+01         0.1311393058E+02
      O         0.2016360550E+01         0.0000000000E+00         0.1311393058E+02
     Ba         0.0000000000E+00         0.0000000000E+00         0.1501865529E+02
     Ti         0.2016360550E+01         0.2016360550E+01         0.1714788483E+02
      O         0.0000000000E+00         0.2016360550E+01         0.1713259029E+02
      O         0.2016360550E+01         0.0000000000E+00         0.1713259029E+02
      O         0.2016360550E+01         0.2016360550E+01         0.1510469579E+02
     Ba         0.0000000000E+00         0.0000000000E+00         0.1913561581E+02
     Ti         0.2016360550E+01         0.2016360550E+01         0.2116708400E+02
      O         0.0000000000E+00         0.2016360550E+01         0.2116708499E+02
      O         0.2016360550E+01         0.0000000000E+00         0.2116708499E+02
      O         0.2016360550E+01         0.2016360550E+01         0.1914846179E+02
   15
    9    -0.6193319708E+03
      H         0.2283683000E-01         0.2035158310E+01         0.1212023691E+02
      O         0.1982527990E+01         0.2066231810E+01         0.1136985928E+02
     Ti         0.2016360550E+01         0.2016360550E+01         0.1322248758E+02
      O         0.0000000000E+00         0.2016360550E+01         0.1311393058E+02
      O         0.2016360550E+01         0.0000000000E+00         0.1311393058E+02
     Ba         0.0000000000E+00         0.0000000000E+00         0.1501865529E+02
     Ti         0.2016360550E+01         0.2016360550E+01         0.1714788483E+02
      O         0.0000000000E+00         0.2016360550E+01         0.1713259029E+02
      O         0.2016360550E+01         0.0000000000E+00         0.1713259029E+02
      O         0.2016360550E+01         0.2016360550E+01         0.1510469579E+02
     Ba         0.0000000000E+00         0.0000000000E+00         0.1913561581E+02
     Ti         0.2016360550E+01         0.2016360550E+01         0.2116708400E+02
      O         0.0000000000E+00         0.2016360550E+01         0.2116708499E+02
      O         0.2016360550E+01         0.0000000000E+00         0.2116708499E+02
      O         0.2016360550E+01         0.2016360550E+01         0.1914846179E+02
   15
   10    -0.6193319788E+03
      H         0.2152295000E-01         0.2035402570E+01         0.1212191331E+02
      O         0.1983845640E+01         0.2065691150E+01         0.1136942937E+02
     Ti         0.2016360550E+01         0.2016360550E+01         0.1322248758E+02
      O         0.0000000000E+00         0.2016360550E+01         0.1311393058E+02
      O         0.2016360550E+01         0.0000000000E+00         0.1311393058E+02
     Ba         0.0000000000E+00         0.0000000000E+00         0.1501865529E+02
     Ti         0.2016360550E+01         0.2016360550E+01         0.1714788483E+02
      O         0.0000000000E+00         0.2016360550E+01         0.1713259029E+02
      O         0.2016360550E+01         0.0000000000E+00         0.1713259029E+02
      O         0.2016360550E+01         0.2016360550E+01         0.1510469579E+02
     Ba         0.0000000000E+00         0.0000000000E+00         0.1913561581E+02
     Ti         0.2016360550E+01         0.2016360550E+01         0.2116708400E+02
      O         0.0000000000E+00         0.2016360550E+01         0.2116708499E+02
      O         0.2016360550E+01         0.0000000000E+00         0.2116708499E+02
      O         0.2016360550E+01         0.2016360550E+01         0.1914846179E+02
   15
   11    -0.6193319751E+03
      H         0.2070918000E-01         0.2035592720E+01         0.1212127134E+02
      O         0.1985321930E+01         0.2065005940E+01         0.1137013998E+02
     Ti         0.2016360550E+01         0.2016360550E+01         0.1322248758E+02
      O         0.0000000000E+00         0.2016360550E+01         0.1311393058E+02
      O         0.2016360550E+01         0.0000000000E+00         0.1311393058E+02
     Ba         0.0000000000E+00         0.0000000000E+00         0.1501865529E+02
     Ti         0.2016360550E+01         0.2016360550E+01         0.1714788483E+02
      O         0.0000000000E+00         0.2016360550E+01         0.1713259029E+02
      O         0.2016360550E+01         0.0000000000E+00         0.1713259029E+02
      O         0.2016360550E+01         0.2016360550E+01         0.1510469579E+02
     Ba         0.0000000000E+00         0.0000000000E+00         0.1913561581E+02
     Ti         0.2016360550E+01         0.2016360550E+01         0.2116708400E+02
      O         0.0000000000E+00         0.2016360550E+01         0.2116708499E+02
      O         0.2016360550E+01         0.0000000000E+00         0.2116708499E+02
      O         0.2016360550E+01         0.2016360550E+01         0.1914846179E+02
   15
   12    -0.6193319812E+03
      H         0.1916144000E-01         0.2035900000E+01         0.1212136451E+02
      O         0.1986813340E+01         0.2064232590E+01         0.1136940234E+02
     Ti         0.2016360550E+01         0.2016360550E+01         0.1322248758E+02
      O         0.0000000000E+00         0.2016360550E+01         0.1311393058E+02
      O         0.2016360550E+01         0.0000000000E+00         0.1311393058E+02
     Ba         0.0000000000E+00         0.0000000000E+00         0.1501865529E+02
     Ti         0.2016360550E+01         0.2016360550E+01         0.1714788483E+02
      O         0.0000000000E+00         0.2016360550E+01         0.1713259029E+02
      O         0.2016360550E+01         0.0000000000E+00         0.1713259029E+02
      O         0.2016360550E+01         0.2016360550E+01         0.1510469579E+02
     Ba         0.0000000000E+00         0.0000000000E+00         0.1913561581E+02
     Ti         0.2016360550E+01         0.2016360550E+01         0.2116708400E+02
      O         0.0000000000E+00         0.2016360550E+01         0.2116708499E+02
      O         0.2016360550E+01         0.0000000000E+00         0.2116708499E+02
      O         0.2016360550E+01         0.2016360550E+01         0.1914846179E+02
   15
   13    -0.6193319821E+03
      H         0.1679151000E-01         0.2036361910E+01         0.1212103752E+02
      O         0.1987957860E+01         0.2063512640E+01         0.1137026466E+02
     Ti         0.2016360550E+01         0.2016360550E+01         0.1322248758E+02
      O         0.0000000000E+00         0.2016360550E+01         0.1311393058E+02
      O         0.2016360550E+01         0.0000000000E+00         0.1311393058E+02
     Ba         0.0000000000E+00         0.0000000000E+00         0.1501865529E+02
     Ti         0.2016360550E+01         0.2016360550E+01         0.1714788483E+02
      O         0.0000000000E+00         0.2016360550E+01         0.1713259029E+02
      O         0.2016360550E+01         0.0000000000E+00         0.1713259029E+02
      O         0.2016360550E+01         0.2016360550E+01         0.1510469579E+02
     Ba         0.0000000000E+00         0.0000000000E+00         0.1913561581E+02
     Ti         0.2016360550E+01         0.2016360550E+01         0.2116708400E+02
      O         0.0000000000E+00         0.2016360550E+01         0.2116708499E+02
      O         0.2016360550E+01         0.0000000000E+00         0.2116708499E+02
      O         0.2016360550E+01         0.2016360550E+01         0.1914846179E+02
   15
   14    -0.6193319881E+03
      H         0.1411011000E-01         0.2036860590E+01         0.1212229776E+02
      O         0.1988387350E+01         0.2063290380E+01         0.1136955788E+02
     Ti         0.2016360550E+01         0.2016360550E+01         0.1322248758E+02
      O         0.0000000000E+00         0.2016360550E+01         0.1311393058E+02
      O         0.2016360550E+01         0.0000000000E+00         0.1311393058E+02
     Ba         0.0000000000E+00         0.0000000000E+00         0.1501865529E+02
     Ti         0.2016360550E+01         0.2016360550E+01         0.1714788483E+02
      O         0.0000000000E+00         0.2016360550E+01         0.1713259029E+02
      O         0.2016360550E+01         0.0000000000E+00         0.1713259029E+02
      O         0.2016360550E+01         0.2016360550E+01         0.1510469579E+02
     Ba         0.0000000000E+00         0.0000000000E+00         0.1913561581E+02
     Ti         0.2016360550E+01         0.2016360550E+01         0.2116708400E+02
      O         0.0000000000E+00         0.2016360550E+01         0.2116708499E+02
      O         0.2016360550E+01         0.0000000000E+00         0.2116708499E+02
      O         0.2016360550E+01         0.2016360550E+01         0.1914846179E+02
   15
   15    -0.6193319877E+03
      H         0.1399954000E-01         0.2036897830E+01         0.1212192918E+02
      O         0.1989151610E+01         0.2063000380E+01         0.1136982367E+02
     Ti         0.2016360550E+01         0.2016360550E+01         0.1322248758E+02
      O         0.0000000000E+00         0.2016360550E+01         0.1311393058E+02
      O         0.2016360550E+01         0.0000000000E+00         0.1311393058E+02
     Ba         0.0000000000E+00         0.0000000000E+00         0.1501865529E+02
     Ti         0.2016360550E+01         0.2016360550E+01         0.1714788483E+02
      O         0.0000000000E+00         0.2016360550E+01         0.1713259029E+02
      O         0.2016360550E+01         0.0000000000E+00         0.1713259029E+02
      O         0.2016360550E+01         0.2016360550E+01         0.1510469579E+02
     Ba         0.0000000000E+00         0.0000000000E+00         0.1913561581E+02
     Ti         0.2016360550E+01         0.2016360550E+01         0.2116708400E+02
      O         0.0000000000E+00         0.2016360550E+01         0.2116708499E+02
      O         0.2016360550E+01         0.0000000000E+00         0.2116708499E+02
      O         0.2016360550E+01         0.2016360550E+01         0.1914846179E+02
   15
   16    -0.6193319871E+03
      H         0.1349133000E-01         0.2037039760E+01         0.1212089302E+02
      O         0.1990186170E+01         0.2062580920E+01         0.1136939246E+02
     Ti         0.2016360550E+01         0.2016360550E+01         0.1322248758E+02
      O         0.0000000000E+00         0.2016360550E+01         0.1311393058E+02
      O         0.2016360550E+01         0.0000000000E+00         0.1311393058E+02
     Ba         0.0000000000E+00         0.0000000000E+00         0.1501865529E+02
     Ti         0.2016360550E+01         0.2016360550E+01         0.1714788483E+02
      O         0.0000000000E+00         0.2016360550E+01         0.1713259029E+02
      O         0.2016360550E+01         0.0000000000E+00         0.1713259029E+02
      O         0.2016360550E+01         0.2016360550E+01         0.1510469579E+02
     Ba         0.0000000000E+00         0.0000000000E+00         0.1913561581E+02
     Ti         0.2016360550E+01         0.2016360550E+01         0.2116708400E+02
      O         0.0000000000E+00         0.2016360550E+01         0.2116708499E+02
      O         0.2016360550E+01         0.0000000000E+00         0.2116708499E+02
      O         0.2016360550E+01         0.2016360550E+01         0.1914846179E+02
