   24
    1    -0.1021161067E+04
      H         0.0000000000E+00         0.2016360550E+01         0.1185149828E+02
     Ti         0.2016360550E+01         0.2016360550E+01         0.1322061820E+02
      O         0.0000000000E+00         0.2016360550E+01         0.1311318365E+02
      O         0.2016360550E+01         0.0000000000E+00         0.1311318365E+02
     Ba         0.0000000000E+00         0.0000000000E+00         0.1501259159E+02
     Ti         0.2016360550E+01         0.2016360550E+01         0.1715623768E+02
      O         0.0000000000E+00         0.2016360550E+01         0.1713920380E+02
      O         0.2016360550E+01         0.0000000000E+00         0.1713920380E+02
      O         0.2016360550E+01         0.2016360550E+01         0.1510146608E+02
     Ba         0.0000000000E+00         0.0000000000E+00         0.1913561581E+02
     Ti         0.2016360550E+01         0.2016360550E+01         0.2116708400E+02
      O         0.0000000000E+00         0.2016360550E+01         0.2116708499E+02
      O         0.2016360550E+01         0.0000000000E+00         0.2116708499E+02
      O         0.2016360550E+01         0.2016360550E+01         0.1914846179E+02
     Ba         0.0000000000E+00         0.0000000000E+00         0.2319855497E+02
     Ti         0.2016360550E+01         0.2016360550E+01         0.2517793036E+02
      O         0.0000000000E+00         0.2016360550E+01         0.2519496392E+02
      O         0.2016360550E+01         0.0000000000E+00         0.2519496392E+02
      O         0.2016360550E+01         0.2016360550E+01         0.2318570767E+02
     Ba         0.0000000000E+00         0.0000000000E+00         0.2732157739E+02
     Ti         0.2016360550E+01         0.2016360550E+01         0.2911355429E+02
      O         0.0000000000E+00         0.2016360550E+01         0.2922098758E+02
      O         0.2016360550E+01         0.0000000000E+00         0.2922098758E+02
      O         0.2016360550E+01         0.2016360550E+01         0.2723270339E+02
   24
    2    -0.1021181990E+04
      H         0.0000000000E+00         0.2016360550E+01         0.1192626442E+02
     Ti         0.2016360550E+01         0.2016360550E+01         0.1322061820E+02
      O         0.0000000000E+00         0.2016360550E+01         0.1311318365E+02
      O         0.2016360550E+01         0.0000000000E+00         0.1311318365E+02
     Ba         0.0000000000E+00         0.0000000000E+00         0.1501259159E+02
     Ti         0.2016360550E+01         0.2016360550E+01         0.1715623768E+02
      O         0.0000000000E+00         0.2016360550E+01         0.1713920380E+02
      O         0.2016360550E+01         0.0000000000E+00         0.1713920380E+02
      O         0.2016360550E+01         0.2016360550E+01         0.1510146608E+02
     Ba         0.0000000000E+00         0.0000000000E+00         0.1913561581E+02
     Ti         0.2016360550E+01         0.2016360550E+01         0.2116708400E+02
      O         0.0000000000E+00         0.2016360550E+01         0.2116708499E+02
      O         0.2016360550E+01         0.0000000000E+00         0.2116708499E+02
      O         0.2016360550E+01         0.2016360550E+01         0.1914846179E+02
     Ba         0.0000000000E+00         0.0000000000E+00         0.2319855497E+02
     Ti         0.2016360550E+01         0.2016360550E+01         0.2517793036E+02
      O         0.0000000000E+00         0.2016360550E+01         0.2519496392E+02
      O         0.2016360550E+01         0.0000000000E+00         0.2519496392E+02
      O         0.2016360550E+01         0.2016360550E+01         0.2318570767E+02
     Ba         0.0000000000E+00         0.0000000000E+00         0.2732157739E+02
     Ti         0.2016360550E+01         0.2016360550E+01         0.2911355429E+02
      O         0.0000000000E+00         0.2016360550E+01         0.2922098758E+02
      O         0.2016360550E+01         0.0000000000E+00         0.2922098758E+02
      O         0.2016360550E+01         0.2016360550E+01         0.2723270339E+02
   24
    3    -0.1021219087E+04
      H         0.0000000000E+00         0.2016362250E+01         0.1209857914E+02
     Ti         0.2016360550E+01         0.2016360550E+01         0.1322061820E+02
      O         0.0000000000E+00         0.2016360550E+01         0.1311318365E+02
      O         0.2016360550E+01         0.0000000000E+00         0.1311318365E+02
     Ba         0.0000000000E+00         0.0000000000E+00         0.1501259159E+02
     Ti         0.2016360550E+01         0.2016360550E+01         0.1715623768E+02
      O         0.0000000000E+00         0.2016360550E+01         0.1713920380E+02
      O         0.2016360550E+01         0.0000000000E+00         0.1713920380E+02
      O         0.2016360550E+01         0.2016360550E+01         0.1510146608E+02
     Ba         0.0000000000E+00         0.0000000000E+00         0.1913561581E+02
     Ti         0.2016360550E+01         0.2016360550E+01         0.2116708400E+02
      O         0.0000000000E+00         0.2016360550E+01         0.2116708499E+02
      O         0.2016360550E+01         0.0000000000E+00         0.2116708499E+02
      O         0.2016360550E+01         0.2016360550E+01         0.1914846179E+02
     Ba         0.0000000000E+00         0.0000000000E+00         0.2319855497E+02
     Ti         0.2016360550E+01         0.2016360550E+01         0.2517793036E+02
      O         0.0000000000E+00         0.2016360550E+01         0.2519496392E+02
      O         0.2016360550E+01         0.0000000000E+00         0.2519496392E+02
      O         0.2016360550E+01         0.2016360550E+01         0.2318570767E+02
     Ba         0.0000000000E+00         0.0000000000E+00         0.2732157739E+02
     Ti         0.2016360550E+01         0.2016360550E+01         0.2911355429E+02
      O         0.0000000000E+00         0.2016360550E+01         0.2922098758E+02
      O         0.2016360550E+01         0.0000000000E+00         0.2922098758E+02
      O         0.2016360550E+01         0.2016360550E+01         0.2723270339E+02
   24
    4    -0.1021140853E+04
      H         0.0000000000E+00         0.2016369360E+01         0.1230545458E+02
     Ti         0.2016360550E+01         0.2016360550E+01         0.1322061820E+02
      O         0.0000000000E+00         0.2016360550E+01         0.1311318365E+02
      O         0.2016360550E+01         0.0000000000E+00         0.1311318365E+02
     Ba         0.0000000000E+00         0.0000000000E+00         0.1501259159E+02
     Ti         0.2016360550E+01         0.2016360550E+01         0.1715623768E+02
      O         0.0000000000E+00         0.2016360550E+01         0.1713920380E+02
      O         0.2016360550E+01         0.0000000000E+00         0.1713920380E+02
      O         0.2016360550E+01         0.2016360550E+01         0.1510146608E+02
     Ba         0.0000000000E+00         0.0000000000E+00         0.1913561581E+02
     Ti         0.2016360550E+01         0.2016360550E+01         0.2116708400E+02
      O         0.0000000000E+00         0.2016360550E+01         0.2116708499E+02
      O         0.2016360550E+01         0.0000000000E+00         0.2116708499E+02
      O         0.2016360550E+01         0.2016360550E+01         0.1914846179E+02
     Ba         0.0000000000E+00         0.0000000000E+00         0.2319855497E+02
     Ti         0.2016360550E+01         0.2016360550E+01         0.2517793036E+02
      O         0.0000000000E+00         0.2016360550E+01         0.2519496392E+02
      O         0.2016360550E+01         0.0000000000E+00         0.2519496392E+02
      O         0.2016360550E+01         0.2016360550E+01         0.2318570767E+02
     Ba         0.0000000000E+00         0.0000000000E+00         0.2732157739E+02
     Ti         0.2016360550E+01         0.2016360550E+01         0.2911355429E+02
      O         0.0000000000E+00         0.2016360550E+01         0.2922098758E+02
      O         0.2016360550E+01         0.0000000000E+00         0.2922098758E+02
      O         0.2016360550E+01         0.2016360550E+01         0.2723270339E+02
   24
    5    -0.1021219087E+04
      H         0.0000000000E+00         0.2016371840E+01         0.1209857914E+02
     Ti         0.2016360550E+01         0.2016360550E+01         0.1322061820E+02
      O         0.0000000000E+00         0.2016360550E+01         0.1311318365E+02
      O         0.2016360550E+01         0.0000000000E+00         0.1311318365E+02
     Ba         0.0000000000E+00         0.0000000000E+00         0.1501259159E+02
     Ti         0.2016360550E+01         0.2016360550E+01         0.1715623768E+02
      O         0.0000000000E+00         0.2016360550E+01         0.1713920380E+02
      O         0.2016360550E+01         0.0000000000E+00         0.1713920380E+02
      O         0.2016360550E+01         0.2016360550E+01         0.1510146608E+02
     Ba         0.0000000000E+00         0.0000000000E+00         0.1913561581E+02
     Ti         0.2016360550E+01         0.2016360550E+01         0.2116708400E+02
      O         0.0000000000E+00         0.2016360550E+01         0.2116708499E+02
      O         0.2016360550E+01         0.0000000000E+00         0.2116708499E+02
      O         0.2016360550E+01         0.2016360550E+01         0.1914846179E+02
     Ba         0.0000000000E+00         0.0000000000E+00         0.2319855497E+02
     Ti         0.2016360550E+01         0.2016360550E+01         0.2517793036E+02
      O         0.0000000000E+00         0.2016360550E+01         0.2519496392E+02
      O         0.2016360550E+01         0.0000000000E+00         0.2519496392E+02
      O         0.2016360550E+01         0.2016360550E+01         0.2318570767E+02
     Ba         0.0000000000E+00         0.0000000000E+00         0.2732157739E+02
     Ti         0.2016360550E+01         0.2016360550E+01         0.2911355429E+02
      O         0.0000000000E+00         0.2016360550E+01         0.2922098758E+02
      O         0.2016360550E+01         0.0000000000E+00         0.2922098758E+02
      O         0.2016360550E+01         0.2016360550E+01         0.2723270339E+02
   24
    6    -0.1021219700E+04
      H         0.0000000000E+00         0.2016371840E+01         0.1210722383E+02
     Ti         0.2016360550E+01         0.2016360550E+01         0.1322061820E+02
      O         0.0000000000E+00         0.2016360550E+01         0.1311318365E+02
      O         0.2016360550E+01         0.0000000000E+00         0.1311318365E+02
     Ba         0.0000000000E+00         0.0000000000E+00         0.1501259159E+02
     Ti         0.2016360550E+01         0.2016360550E+01         0.1715623768E+02
      O         0.0000000000E+00         0.2016360550E+01         0.1713920380E+02
      O         0.2016360550E+01         0.0000000000E+00         0.1713920380E+02
      O         0.2016360550E+01         0.2016360550E+01         0.1510146608E+02
     Ba         0.0000000000E+00         0.0000000000E+00         0.1913561581E+02
     Ti         0.2016360550E+01         0.2016360550E+01         0.2116708400E+02
      O         0.0000000000E+00         0.2016360550E+01         0.2116708499E+02
      O         0.2016360550E+01         0.0000000000E+00         0.2116708499E+02
      O         0.2016360550E+01         0.2016360550E+01         0.1914846179E+02
     Ba         0.0000000000E+00         0.0000000000E+00         0.2319855497E+02
     Ti         0.2016360550E+01         0.2016360550E+01         0.2517793036E+02
      O         0.0000000000E+00         0.2016360550E+01         0.2519496392E+02
      O         0.2016360550E+01         0.0000000000E+00         0.2519496392E+02
      O         0.2016360550E+01         0.2016360550E+01         0.2318570767E+02
     Ba         0.0000000000E+00         0.0000000000E+00         0.2732157739E+02
     Ti         0.2016360550E+01         0.2016360550E+01         0.2911355429E+02
      O         0.0000000000E+00         0.2016360550E+01         0.2922098758E+02
      O         0.2016360550E+01         0.0000000000E+00         0.2922098758E+02
      O         0.2016360550E+01         0.2016360550E+01         0.2723270339E+02
   24
    7    -0.1021220296E+04
      H         0.0000000000E+00         0.2016371840E+01         0.1212360552E+02
     Ti         0.2016360550E+01         0.2016360550E+01         0.1322061820E+02
      O         0.0000000000E+00         0.2016360550E+01         0.1311318365E+02
      O         0.2016360550E+01         0.0000000000E+00         0.1311318365E+02
     Ba         0.0000000000E+00         0.0000000000E+00         0.1501259159E+02
     Ti         0.2016360550E+01         0.2016360550E+01         0.1715623768E+02
      O         0.0000000000E+00         0.2016360550E+01         0.1713920380E+02
      O         0.2016360550E+01         0.0000000000E+00         0.1713920380E+02
      O         0.2016360550E+01         0.2016360550E+01         0.1510146608E+02
     Ba         0.0000000000E+00         0.0000000000E+00         0.1913561581E+02
     Ti         0.2016360550E+01         0.2016360550E+01         0.2116708400E+02
      O         0.0000000000E+00         0.2016360550E+01         0.2116708499E+02
      O         0.2016360550E+01         0.0000000000E+00         0.2116708499E+02
      O         0.2016360550E+01         0.2016360550E+01         0.1914846179E+02
     Ba         0.0000000000E+00         0.0000000000E+00         0.2319855497E+02
     Ti         0.2016360550E+01         0.2016360550E+01         0.2517793036E+02
      O         0.0000000000E+00         0.2016360550E+01         0.2519496392E+02
      O         0.2016360550E+01         0.0000000000E+00         0.2519496392E+02
      O         0.2016360550E+01         0.2016360550E+01         0.2318570767E+02
     Ba         0.0000000000E+00         0.0000000000E+00         0.2732157739E+02
     Ti         0.2016360550E+01         0.2016360550E+01         0.2911355429E+02
      O         0.0000000000E+00         0.2016360550E+01         0.2922098758E+02
      O         0.2016360550E+01         0.0000000000E+00         0.2922098758E+02
      O         0.2016360550E+01         0.2016360550E+01         0.2723270339E+02
   24
    8    -0.1021219985E+04
      H         0.0000000000E+00         0.2016376060E+01         0.1214158863E+02
     Ti         0.2016360550E+01         0.2016360550E+01         0.1322061820E+02
      O         0.0000000000E+00         0.2016360550E+01         0.1311318365E+02
      O         0.2016360550E+01         0.0000000000E+00         0.1311318365E+02
     Ba         0.0000000000E+00         0.0000000000E+00         0.1501259159E+02
     Ti         0.2016360550E+01         0.2016360550E+01         0.1715623768E+02
      O         0.0000000000E+00         0.2016360550E+01         0.1713920380E+02
      O         0.2016360550E+01         0.0000000000E+00         0.1713920380E+02
      O         0.2016360550E+01         0.2016360550E+01         0.1510146608E+02
     Ba         0.0000000000E+00         0.0000000000E+00         0.1913561581E+02
     Ti         0.2016360550E+01         0.2016360550E+01         0.2116708400E+02
      O         0.0000000000E+00         0.2016360550E+01         0.2116708499E+02
      O         0.2016360550E+01         0.0000000000E+00         0.2116708499E+02
      O         0.2016360550E+01         0.2016360550E+01         0.1914846179E+02
     Ba         0.0000000000E+00         0.0000000000E+00         0.2319855497E+02
     Ti         0.2016360550E+01         0.2016360550E+01         0.2517793036E+02
      O         0.0000000000E+00         0.2016360550E+01         0.2519496392E+02
      O         0.2016360550E+01         0.0000000000E+00         0.2519496392E+02
      O         0.2016360550E+01         0.2016360550E+01         0.2318570767E+02
     Ba         0.0000000000E+00         0.0000000000E+00         0.2732157739E+02
     Ti         0.2016360550E+01         0.2016360550E+01         0.2911355429E+02
      O         0.0000000000E+00         0.2016360550E+01         0.2922098758E+02
      O         0.2016360550E+01         0.0000000000E+00         0.2922098758E+02
      O         0.2016360550E+01         0.2016360550E+01         0.2723270339E+02
   24
    9    -0.1021220264E+04
      H         0.0000000000E+00         0.2016376920E+01         0.1213314951E+02
     Ti         0.2016360550E+01         0.2016360550E+01         0.1322061820E+02
      O         0.0000000000E+00         0.2016360550E+01         0.1311318365E+02
      O         0.2016360550E+01         0.0000000000E+00         0.1311318365E+02
     Ba         0.0000000000E+00         0.0000000000E+00         0.1501259159E+02
     Ti         0.2016360550E+01         0.2016360550E+01         0.1715623768E+02
      O         0.0000000000E+00         0.2016360550E+01         0.1713920380E+02
      O         0.2016360550E+01         0.0000000000E+00         0.1713920380E+02
      O         0.2016360550E+01         0.2016360550E+01         0.1510146608E+02
     Ba         0.0000000000E+00         0.0000000000E+00         0.1913561581E+02
     Ti         0.2016360550E+01         0.2016360550E+01         0.2116708400E+02
      O         0.0000000000E+00         0.2016360550E+01         0.2116708499E+02
      O         0.2016360550E+01         0.0000000000E+00         0.2116708499E+02
      O         0.2016360550E+01         0.2016360550E+01         0.1914846179E+02
     Ba         0.0000000000E+00         0.0000000000E+00         0.2319855497E+02
     Ti         0.2016360550E+01         0.2016360550E+01         0.2517793036E+02
      O         0.0000000000E+00         0.2016360550E+01         0.2519496392E+02
      O         0.2016360550E+01         0.0000000000E+00         0.2519496392E+02
      O         0.2016360550E+01         0.2016360550E+01         0.2318570767E+02
     Ba         0.0000000000E+00         0.0000000000E+00         0.2732157739E+02
     Ti         0.2016360550E+01         0.2016360550E+01         0.2911355429E+02
      O         0.0000000000E+00         0.2016360550E+01         0.2922098758E+02
      O         0.2016360550E+01         0.0000000000E+00         0.2922098758E+02
      O         0.2016360550E+01         0.2016360550E+01         0.2723270339E+02
   24
   10    -0.1021220312E+04
      H         0.0000000000E+00         0.2016376920E+01         0.1212959502E+02
     Ti         0.2016360550E+01         0.2016360550E+01         0.1322061820E+02
      O         0.0000000000E+00         0.2016360550E+01         0.1311318365E+02
      O         0.2016360550E+01         0.0000000000E+00         0.1311318365E+02
     Ba         0.0000000000E+00         0.0000000000E+00         0.1501259159E+02
     Ti         0.2016360550E+01         0.2016360550E+01         0.1715623768E+02
      O         0.0000000000E+00         0.2016360550E+01         0.1713920380E+02
      O         0.2016360550E+01         0.0000000000E+00         0.1713920380E+02
      O         0.2016360550E+01         0.2016360550E+01         0.1510146608E+02
     Ba         0.0000000000E+00         0.0000000000E+00         0.1913561581E+02
     Ti         0.2016360550E+01         0.2016360550E+01         0.2116708400E+02
      O         0.0000000000E+00         0.2016360550E+01         0.2116708499E+02
      O         0.2016360550E+01         0.0000000000E+00         0.2116708499E+02
      O         0.2016360550E+01         0.2016360550E+01         0.1914846179E+02
     Ba         0.0000000000E+00         0.0000000000E+00         0.2319855497E+02
     Ti         0.2016360550E+01         0.2016360550E+01         0.2517793036E+02
      O         0.0000000000E+00         0.2016360550E+01         0.2519496392E+02
      O         0.2016360550E+01         0.0000000000E+00         0.2519496392E+02
      O         0.2016360550E+01         0.2016360550E+01         0.2318570767E+02
     Ba         0.0000000000E+00         0.0000000000E+00         0.2732157739E+02
     Ti         0.2016360550E+01         0.2016360550E+01         0.2911355429E+02
      O         0.0000000000E+00         0.2016360550E+01         0.2922098758E+02
      O         0.2016360550E+01         0.0000000000E+00         0.2922098758E+02
      O         0.2016360550E+01         0.2016360550E+01         0.2723270339E+02
   24
   11    -0.1021220318E+04
      H         0.0000000000E+00         0.2016376920E+01         0.1212799658E+02
     Ti         0.2016360550E+01         0.2016360550E+01         0.1322061820E+02
      O         0.0000000000E+00         0.2016360550E+01         0.1311318365E+02
      O         0.2016360550E+01         0.0000000000E+00         0.1311318365E+02
     Ba         0.0000000000E+00         0.0000000000E+00         0.1501259159E+02
     Ti         0.2016360550E+01         0.2016360550E+01         0.1715623768E+02
      O         0.0000000000E+00         0.2016360550E+01         0.1713920380E+02
      O         0.2016360550E+01         0.0000000000E+00         0.1713920380E+02
      O         0.2016360550E+01         0.2016360550E+01         0.1510146608E+02
     Ba         0.0000000000E+00         0.0000000000E+00         0.1913561581E+02
     Ti         0.2016360550E+01         0.2016360550E+01         0.2116708400E+02
      O         0.0000000000E+00         0.2016360550E+01         0.2116708499E+02
      O         0.2016360550E+01         0.0000000000E+00         0.2116708499E+02
      O         0.2016360550E+01         0.2016360550E+01         0.1914846179E+02
     Ba         0.0000000000E+00         0.0000000000E+00         0.2319855497E+02
     Ti         0.2016360550E+01         0.2016360550E+01         0.2517793036E+02
      O         0.0000000000E+00         0.2016360550E+01         0.2519496392E+02
      O         0.2016360550E+01         0.0000000000E+00         0.2519496392E+02
      O         0.2016360550E+01         0.2016360550E+01         0.2318570767E+02
     Ba         0.0000000000E+00         0.0000000000E+00         0.2732157739E+02
     Ti         0.2016360550E+01         0.2016360550E+01         0.2911355429E+02
      O         0.0000000000E+00         0.2016360550E+01         0.2922098758E+02
      O         0.2016360550E+01         0.0000000000E+00         0.2922098758E+02
      O         0.2016360550E+01         0.2016360550E+01         0.2723270339E+02
   24
   12    -0.1021220319E+04
      H         0.0000000000E+00         0.2016376920E+01         0.1212727489E+02
     Ti         0.2016360550E+01         0.2016360550E+01         0.1322061820E+02
      O         0.0000000000E+00         0.2016360550E+01         0.1311318365E+02
      O         0.2016360550E+01         0.0000000000E+00         0.1311318365E+02
     Ba         0.0000000000E+00         0.0000000000E+00         0.1501259159E+02
     Ti         0.2016360550E+01         0.2016360550E+01         0.1715623768E+02
      O         0.0000000000E+00         0.2016360550E+01         0.1713920380E+02
      O         0.2016360550E+01         0.0000000000E+00         0.1713920380E+02
      O         0.2016360550E+01         0.2016360550E+01         0.1510146608E+02
     Ba         0.0000000000E+00         0.0000000000E+00         0.1913561581E+02
     Ti         0.2016360550E+01         0.2016360550E+01         0.2116708400E+02
      O         0.0000000000E+00         0.2016360550E+01         0.2116708499E+02
      O         0.2016360550E+01         0.0000000000E+00         0.2116708499E+02
      O         0.2016360550E+01         0.2016360550E+01         0.1914846179E+02
     Ba         0.0000000000E+00         0.0000000000E+00         0.2319855497E+02
     Ti         0.2016360550E+01         0.2016360550E+01         0.2517793036E+02
      O         0.0000000000E+00         0.2016360550E+01         0.2519496392E+02
      O         0.2016360550E+01         0.0000000000E+00         0.2519496392E+02
      O         0.2016360550E+01         0.2016360550E+01         0.2318570767E+02
     Ba         0.0000000000E+00         0.0000000000E+00         0.2732157739E+02
     Ti         0.2016360550E+01         0.2016360550E+01         0.2911355429E+02
      O         0.0000000000E+00         0.2016360550E+01         0.2922098758E+02
      O         0.2016360550E+01         0.0000000000E+00         0.2922098758E+02
      O         0.2016360550E+01         0.2016360550E+01         0.2723270339E+02
   24
   13    -0.1021220319E+04
      H         0.0000000000E+00         0.2016376920E+01         0.1212693661E+02
     Ti         0.2016360550E+01         0.2016360550E+01         0.1322061820E+02
      O         0.0000000000E+00         0.2016360550E+01         0.1311318365E+02
      O         0.2016360550E+01         0.0000000000E+00         0.1311318365E+02
     Ba         0.0000000000E+00         0.0000000000E+00         0.1501259159E+02
     Ti         0.2016360550E+01         0.2016360550E+01         0.1715623768E+02
      O         0.0000000000E+00         0.2016360550E+01         0.1713920380E+02
      O         0.2016360550E+01         0.0000000000E+00         0.1713920380E+02
      O         0.2016360550E+01         0.2016360550E+01         0.1510146608E+02
     Ba         0.0000000000E+00         0.0000000000E+00         0.1913561581E+02
     Ti         0.2016360550E+01         0.2016360550E+01         0.2116708400E+02
      O         0.0000000000E+00         0.2016360550E+01         0.2116708499E+02
      O         0.2016360550E+01         0.0000000000E+00         0.2116708499E+02
      O         0.2016360550E+01         0.2016360550E+01         0.1914846179E+02
     Ba         0.0000000000E+00         0.0000000000E+00         0.2319855497E+02
     Ti         0.2016360550E+01         0.2016360550E+01         0.2517793036E+02
      O         0.0000000000E+00         0.2016360550E+01         0.2519496392E+02
      O         0.2016360550E+01         0.0000000000E+00         0.2519496392E+02
      O         0.2016360550E+01         0.2016360550E+01         0.2318570767E+02
     Ba         0.0000000000E+00         0.0000000000E+00         0.2732157739E+02
     Ti         0.2016360550E+01         0.2016360550E+01         0.2911355429E+02
      O         0.0000000000E+00         0.2016360550E+01         0.2922098758E+02
      O         0.2016360550E+01         0.0000000000E+00         0.2922098758E+02
      O         0.2016360550E+01         0.2016360550E+01         0.2723270339E+02
