  211
    1    -0.9413380083E+04
      O         0.1961210430E+01         0.1415354832E+02         0.1119705015E+02
      H         0.1939075310E+01         0.2712409000E-01         0.1197146256E+02
      H         0.1608148003E+02         0.1416487707E+02         0.1197208696E+02
     Ti         0.1968213010E+01         0.1414705793E+02         0.1287844642E+02
     Ti         0.1968213010E+01         0.2048894650E+01         0.1287844642E+02
     Ti         0.1406637629E+02         0.1414705793E+02         0.1287844642E+02
     Ti         0.1406637629E+02         0.2048894650E+01         0.1287844642E+02
     Ti         0.6000934100E+01         0.1414705793E+02         0.1287844642E+02
     Ti         0.1968213010E+01         0.1011433683E+02         0.1287844642E+02
     Ti         0.6000934100E+01         0.2048894650E+01         0.1287844642E+02
     Ti         0.1406637629E+02         0.1011433683E+02         0.1287844642E+02
     Ti         0.1968213010E+01         0.6081615740E+01         0.1287844642E+02
     Ti         0.1003365519E+02         0.1414705793E+02         0.1287844642E+02
     Ti         0.1406637629E+02         0.6081615740E+01         0.1287844642E+02
     Ti         0.1003365519E+02         0.2048894650E+01         0.1287844642E+02
     Ti         0.6000934100E+01         0.1011433683E+02         0.1287844642E+02
     Ti         0.6000934100E+01         0.6081615740E+01         0.1287844642E+02
     Ti         0.1003365519E+02         0.1011433683E+02         0.1287844642E+02
     Ti         0.1003365519E+02         0.6081615740E+01         0.1287844642E+02
      O         0.1957333920E+01         0.3438123000E-01         0.1296527815E+02
      O         0.1405549720E+02         0.3438123000E-01         0.1296527815E+02
      O         0.1957333920E+01         0.1213254451E+02         0.1296527815E+02
      O         0.1405549720E+02         0.1213254451E+02         0.1296527815E+02
      O         0.1957333920E+01         0.4067102320E+01         0.1296527815E+02
      O         0.1405549720E+02         0.4067102320E+01         0.1296527815E+02
      O         0.5990055020E+01         0.3438123000E-01         0.1296527815E+02
      O         0.1002277611E+02         0.3438123000E-01         0.1296527815E+02
      O         0.5990055020E+01         0.1213254451E+02         0.1296527815E+02
      O         0.5990055020E+01         0.4067102320E+01         0.1296527815E+02
      O         0.1002277611E+02         0.1213254451E+02         0.1296527815E+02
      O         0.1002277611E+02         0.4067102320E+01         0.1296527815E+02
      O         0.1957333920E+01         0.8099823410E+01         0.1296527815E+02
      O         0.1405549720E+02         0.8099823410E+01         0.1296527815E+02
      O         0.5990055020E+01         0.8099823410E+01         0.1296527815E+02
      O         0.1002277611E+02         0.8099823410E+01         0.1296527815E+02
      O         0.1607949522E+02         0.1415202919E+02         0.1296563606E+02
      O         0.1607949522E+02         0.2053865910E+01         0.1296563606E+02
      O         0.3981331940E+01         0.1415202919E+02         0.1296563606E+02
      O         0.3981331940E+01         0.2053865910E+01         0.1296563606E+02
      O         0.1204677412E+02         0.1415202919E+02         0.1296563606E+02
      O         0.1204677412E+02         0.2053865910E+01         0.1296563606E+02
      O         0.1607949522E+02         0.1011930810E+02         0.1296563606E+02
      O         0.1607949522E+02         0.6086587000E+01         0.1296563606E+02
      O         0.3981331940E+01         0.1011930810E+02         0.1296563606E+02
      O         0.1204677412E+02         0.1011930810E+02         0.1296563606E+02
      O         0.3981331940E+01         0.6086587000E+01         0.1296563606E+02
      O         0.1204677412E+02         0.6086587000E+01         0.1296563606E+02
      O         0.8014053030E+01         0.1415202919E+02         0.1296563606E+02
      O         0.8014053030E+01         0.2053865910E+01         0.1296563606E+02
      O         0.8014053030E+01         0.1011930810E+02         0.1296563606E+02
      O         0.8014053030E+01         0.6086587000E+01         0.1296563606E+02
     Ba         0.1610983363E+02         0.2967264000E-01         0.1508141920E+02
     Ba         0.1610983363E+02         0.1212783592E+02         0.1508141920E+02
     Ba         0.4011670360E+01         0.2967264000E-01         0.1508141920E+02
     Ba         0.1207711254E+02         0.2967264000E-01         0.1508141920E+02
     Ba         0.1610983363E+02         0.4062393740E+01         0.1508141920E+02
     Ba         0.4011670360E+01         0.1212783592E+02         0.1508141920E+02
     Ba         0.1207711254E+02         0.1212783592E+02         0.1508141920E+02
     Ba         0.4011670360E+01         0.4062393740E+01         0.1508141920E+02
     Ba         0.1207711254E+02         0.4062393740E+01         0.1508141920E+02
     Ba         0.1610983363E+02         0.8095114830E+01         0.1508141920E+02
     Ba         0.8044391450E+01         0.2967264000E-01         0.1508141920E+02
     Ba         0.4011670360E+01         0.8095114830E+01         0.1508141920E+02
     Ba         0.8044391450E+01         0.1212783592E+02         0.1508141920E+02
     Ba         0.1207711254E+02         0.8095114830E+01         0.1508141920E+02
     Ba         0.8044391450E+01         0.4062393740E+01         0.1508141920E+02
     Ba         0.8044391450E+01         0.8095114830E+01         0.1508141920E+02
      O         0.1976112530E+01         0.1412204408E+02         0.1510844557E+02
      O         0.1976112530E+01         0.2023880800E+01         0.1510844557E+02
      O         0.1407427581E+02         0.1412204408E+02         0.1510844557E+02
      O         0.1407427581E+02         0.2023880800E+01         0.1510844557E+02
      O         0.6008833620E+01         0.1412204408E+02         0.1510844557E+02
      O         0.6008833620E+01         0.2023880800E+01         0.1510844557E+02
      O         0.1976112530E+01         0.1008932299E+02         0.1510844557E+02
      O         0.1976112530E+01         0.6056601900E+01         0.1510844557E+02
      O         0.1407427581E+02         0.1008932299E+02         0.1510844557E+02
      O         0.1407427581E+02         0.6056601900E+01         0.1510844557E+02
      O         0.1004155471E+02         0.1412204408E+02         0.1510844557E+02
      O         0.1004155471E+02         0.2023880800E+01         0.1510844557E+02
      O         0.6008833620E+01         0.1008932299E+02         0.1510844557E+02
      O         0.6008833620E+01         0.6056601900E+01         0.1510844557E+02
      O         0.1004155471E+02         0.1008932299E+02         0.1510844557E+02
      O         0.1004155471E+02         0.6056601900E+01         0.1510844557E+02
     Ti         0.1414946549E+02         0.1417804172E+02         0.1705971971E+02
     Ti         0.2051302210E+01         0.1417804172E+02         0.1705971971E+02
     Ti         0.1414946549E+02         0.2079878440E+01         0.1705971971E+02
     Ti         0.2051302210E+01         0.2079878440E+01         0.1705971971E+02
     Ti         0.1414946549E+02         0.1014532062E+02         0.1705971971E+02
     Ti         0.1011674440E+02         0.1417804172E+02         0.1705971971E+02
     Ti         0.2051302210E+01         0.1014532062E+02         0.1705971971E+02
     Ti         0.1011674440E+02         0.2079878440E+01         0.1705971971E+02
     Ti         0.6084023300E+01         0.1417804172E+02         0.1705971971E+02
     Ti         0.1414946549E+02         0.6112599530E+01         0.1705971971E+02
     Ti         0.6084023300E+01         0.2079878440E+01         0.1705971971E+02
     Ti         0.2051302210E+01         0.6112599530E+01         0.1705971971E+02
     Ti         0.1011674440E+02         0.1014532062E+02         0.1705971971E+02
     Ti         0.6084023300E+01         0.1014532062E+02         0.1705971971E+02
     Ti         0.1011674440E+02         0.6112599530E+01         0.1705971971E+02
     Ti         0.6084023300E+01         0.6112599530E+01         0.1705971971E+02
      O         0.1607522710E+02         0.2000375880E+01         0.1709295049E+02
      O         0.1607522710E+02         0.1409853916E+02         0.1709295049E+02
      O         0.3977063820E+01         0.2000375880E+01         0.1709295049E+02
      O         0.3977063820E+01         0.1409853916E+02         0.1709295049E+02
      O         0.1204250600E+02         0.2000375880E+01         0.1709295049E+02
      O         0.1204250600E+02         0.1409853916E+02         0.1709295049E+02
      O         0.1607522710E+02         0.6033096970E+01         0.1709295049E+02
      O         0.1607522710E+02         0.1006581807E+02         0.1709295049E+02
      O         0.3977063820E+01         0.6033096970E+01         0.1709295049E+02
      O         0.3977063820E+01         0.1006581807E+02         0.1709295049E+02
      O         0.1204250600E+02         0.6033096970E+01         0.1709295049E+02
      O         0.1204250600E+02         0.1006581807E+02         0.1709295049E+02
      O         0.8009784910E+01         0.2000375880E+01         0.1709295049E+02
      O         0.8009784910E+01         0.1409853916E+02         0.1709295049E+02
      O         0.8009784910E+01         0.6033096970E+01         0.1709295049E+02
      O         0.8009784910E+01         0.1006581807E+02         0.1709295049E+02
      O         0.1974979920E+01         0.1609950661E+02         0.1709379955E+02
      O         0.1407314320E+02         0.1609950661E+02         0.1709379955E+02
      O         0.1974979920E+01         0.4001343330E+01         0.1709379955E+02
      O         0.1407314320E+02         0.4001343330E+01         0.1709379955E+02
      O         0.1974979920E+01         0.1206678552E+02         0.1709379955E+02
      O         0.1407314320E+02         0.1206678552E+02         0.1709379955E+02
      O         0.6007701010E+01         0.1609950661E+02         0.1709379955E+02
      O         0.1004042210E+02         0.1609950661E+02         0.1709379955E+02
      O         0.6007701010E+01         0.4001343330E+01         0.1709379955E+02
      O         0.6007701010E+01         0.1206678552E+02         0.1709379955E+02
      O         0.1004042210E+02         0.4001343330E+01         0.1709379955E+02
      O         0.1004042210E+02         0.1206678552E+02         0.1709379955E+02
      O         0.1974979920E+01         0.8034064430E+01         0.1709379955E+02
      O         0.1407314320E+02         0.8034064430E+01         0.1709379955E+02
      O         0.6007701010E+01         0.8034064430E+01         0.1709379955E+02
      O         0.1004042210E+02         0.8034064430E+01         0.1709379955E+02
     Ba         0.0000000000E+00         0.0000000000E+00         0.1913561581E+02
     Ba         0.4032721090E+01         0.0000000000E+00         0.1913561581E+02
     Ba         0.0000000000E+00         0.4032721090E+01         0.1913561581E+02
     Ba         0.0000000000E+00         0.1209816328E+02         0.1913561581E+02
     Ba         0.1209816328E+02         0.0000000000E+00         0.1913561581E+02
     Ba         0.4032721090E+01         0.4032721090E+01         0.1913561581E+02
     Ba         0.4032721090E+01         0.1209816328E+02         0.1913561581E+02
     Ba         0.1209816328E+02         0.4032721090E+01         0.1913561581E+02
     Ba         0.1209816328E+02         0.1209816328E+02         0.1913561581E+02
     Ba         0.8065442190E+01         0.0000000000E+00         0.1913561581E+02
     Ba         0.0000000000E+00         0.8065442190E+01         0.1913561581E+02
     Ba         0.8065442190E+01         0.4032721090E+01         0.1913561581E+02
     Ba         0.4032721090E+01         0.8065442190E+01         0.1913561581E+02
     Ba         0.8065442190E+01         0.1209816328E+02         0.1913561581E+02
     Ba         0.1209816328E+02         0.8065442190E+01         0.1913561581E+02
     Ba         0.8065442190E+01         0.8065442190E+01         0.1913561581E+02
      O         0.2016360550E+01         0.2016360550E+01         0.1914846179E+02
      O         0.2016360550E+01         0.1411452383E+02         0.1914846179E+02
      O         0.1411452383E+02         0.2016360550E+01         0.1914846179E+02
      O         0.1411452383E+02         0.1411452383E+02         0.1914846179E+02
      O         0.6049081640E+01         0.2016360550E+01         0.1914846179E+02
      O         0.2016360550E+01         0.6049081640E+01         0.1914846179E+02
      O         0.6049081640E+01         0.1411452383E+02         0.1914846179E+02
      O         0.1411452383E+02         0.6049081640E+01         0.1914846179E+02
      O         0.2016360550E+01         0.1008180273E+02         0.1914846179E+02
      O         0.1008180273E+02         0.2016360550E+01         0.1914846179E+02
      O         0.1411452383E+02         0.1008180273E+02         0.1914846179E+02
      O         0.1008180273E+02         0.1411452383E+02         0.1914846179E+02
      O         0.6049081640E+01         0.6049081640E+01         0.1914846179E+02
      O         0.6049081640E+01         0.1008180273E+02         0.1914846179E+02
      O         0.1008180273E+02         0.6049081640E+01         0.1914846179E+02
      O         0.1008180273E+02         0.1008180273E+02         0.1914846179E+02
     Ti         0.2016360550E+01         0.2016360550E+01         0.2116708400E+02
     Ti         0.2016360550E+01         0.1411452383E+02         0.2116708400E+02
     Ti         0.1411452383E+02         0.2016360550E+01         0.2116708400E+02
     Ti         0.1411452383E+02         0.1411452383E+02         0.2116708400E+02
     Ti         0.6049081640E+01         0.2016360550E+01         0.2116708400E+02
     Ti         0.2016360550E+01         0.6049081640E+01         0.2116708400E+02
     Ti         0.6049081640E+01         0.1411452383E+02         0.2116708400E+02
     Ti         0.1411452383E+02         0.6049081640E+01         0.2116708400E+02
     Ti         0.2016360550E+01         0.1008180273E+02         0.2116708400E+02
     Ti         0.1008180273E+02         0.2016360550E+01         0.2116708400E+02
     Ti         0.1411452383E+02         0.1008180273E+02         0.2116708400E+02
     Ti         0.1008180273E+02         0.1411452383E+02         0.2116708400E+02
     Ti         0.6049081640E+01         0.6049081640E+01         0.2116708400E+02
     Ti         0.6049081640E+01         0.1008180273E+02         0.2116708400E+02
     Ti         0.1008180273E+02         0.6049081640E+01         0.2116708400E+02
     Ti         0.1008180273E+02         0.1008180273E+02         0.2116708400E+02
      O         0.2016360550E+01         0.0000000000E+00         0.2116708499E+02
      O         0.0000000000E+00         0.2016360550E+01         0.2116708499E+02
      O         0.0000000000E+00         0.1411452383E+02         0.2116708499E+02
      O         0.1411452383E+02         0.0000000000E+00         0.2116708499E+02
      O         0.4032721090E+01         0.2016360550E+01         0.2116708499E+02
      O         0.2016360550E+01         0.4032721090E+01         0.2116708499E+02
      O         0.4032721090E+01         0.1411452383E+02         0.2116708499E+02
      O         0.1411452383E+02         0.4032721090E+01         0.2116708499E+02
      O         0.2016360550E+01         0.1209816328E+02         0.2116708499E+02
      O         0.1209816328E+02         0.2016360550E+01         0.2116708499E+02
      O         0.1411452383E+02         0.1209816328E+02         0.2116708499E+02
      O         0.1209816328E+02         0.1411452383E+02         0.2116708499E+02
      O         0.6049081640E+01         0.0000000000E+00         0.2116708499E+02
      O         0.0000000000E+00         0.6049081640E+01         0.2116708499E+02
      O         0.0000000000E+00         0.1008180273E+02         0.2116708499E+02
      O         0.1008180273E+02         0.0000000000E+00         0.2116708499E+02
      O         0.6049081640E+01         0.4032721090E+01         0.2116708499E+02
      O         0.4032721090E+01         0.6049081640E+01         0.2116708499E+02
      O         0.6049081640E+01         0.1209816328E+02         0.2116708499E+02
      O         0.1209816328E+02         0.6049081640E+01         0.2116708499E+02
      O         0.4032721090E+01         0.1008180273E+02         0.2116708499E+02
      O         0.1008180273E+02         0.4032721090E+01         0.2116708499E+02
      O         0.1209816328E+02         0.1008180273E+02         0.2116708499E+02
      O         0.1008180273E+02         0.1209816328E+02         0.2116708499E+02
      O         0.8065442190E+01         0.2016360550E+01         0.2116708499E+02
      O         0.2016360550E+01         0.8065442190E+01         0.2116708499E+02
      O         0.8065442190E+01         0.1411452383E+02         0.2116708499E+02
      O         0.1411452383E+02         0.8065442190E+01         0.2116708499E+02
      O         0.8065442190E+01         0.6049081640E+01         0.2116708499E+02
      O         0.6049081640E+01         0.8065442190E+01         0.2116708499E+02
      O         0.8065442190E+01         0.1008180273E+02         0.2116708499E+02
      O         0.1008180273E+02         0.8065442190E+01         0.2116708499E+02
