    3
    1    -0.3442778279E+02
      H         0.8699671520E+01         0.7339686380E+01         0.7937656500E+01
      O         0.7937656500E+01         0.7937656500E+01         0.7937656500E+01
      H         0.7175641480E+01         0.7339686380E+01         0.7937656500E+01
    3
    2    -0.3442783683E+02
      H         0.8692767820E+01         0.7339428070E+01         0.7937661230E+01
      O         0.7937656500E+01         0.7937656500E+01         0.7937656500E+01
      H         0.7182545190E+01         0.7339428440E+01         0.7937653160E+01
    3
    3    -0.3442794139E+02
      H         0.8684951250E+01         0.7332595040E+01         0.7937676750E+01
      O         0.7937656500E+01         0.7937656500E+01         0.7937656500E+01
      H         0.7190365170E+01         0.7332597630E+01         0.7937642210E+01
    3
    4    -0.3442801542E+02
      H         0.8678769960E+01         0.7320899540E+01         0.7937738240E+01
      O         0.7937656500E+01         0.7937656500E+01         0.7937656500E+01
      H         0.7196521420E+01         0.7320893130E+01         0.7937596500E+01
    3
    5    -0.3442792337E+02
      H         0.8677120790E+01         0.7322608860E+01         0.7937759430E+01
      O         0.7937656500E+01         0.7937656500E+01         0.7937656500E+01
      H         0.7198186040E+01         0.7322614230E+01         0.7937580580E+01
    3
    6    -0.3442791068E+02
      H         0.8677039260E+01         0.7322992230E+01         0.7937785040E+01
      O         0.7937656500E+01         0.7937656500E+01         0.7937656500E+01
      H         0.7198271560E+01         0.7322997590E+01         0.7937561260E+01
