    2
    1    -0.3297585185E+02
      H         0.4762593900E+01         0.7408479400E+01         0.4762593900E+01
      O         0.4762593900E+01         0.8466833600E+01         0.4762593900E+01
    2
    2    -0.3298196245E+02
      H         0.4762593900E+01         0.7408479400E+01         0.4762593900E+01
      O         0.4762594970E+01         0.8426103350E+01         0.4762594930E+01
    2
    3    -0.3297788071E+02
      H         0.4762593900E+01         0.7408479400E+01         0.4762593900E+01
      O         0.4762592220E+01         0.8342815930E+01         0.4762590030E+01
    2
    4    -0.3298275884E+02
      H         0.4762593900E+01         0.7408479400E+01         0.4762593900E+01
      O         0.4762590870E+01         0.8377790720E+01         0.4762589160E+01
    2
    5    -0.3298303929E+02
      H         0.4762593900E+01         0.7408479400E+01         0.4762593900E+01
      O         0.4762589440E+01         0.8382879750E+01         0.4762587870E+01
    2
    6    -0.3298310223E+02
      H         0.4762593900E+01         0.7408479400E+01         0.4762593900E+01
      O         0.4762588620E+01         0.8384307650E+01         0.4762587870E+01
    2
    7    -0.3298312620E+02
      H         0.4762593900E+01         0.7408479400E+01         0.4762593900E+01
      O         0.4762587950E+01         0.8384718080E+01         0.4762587870E+01
