  210
    1    -0.9413585859E+04
      H         0.1264131150E+01         0.1479567064E+02         0.1058243688E+02
      O         0.2046301290E+01         0.1431827246E+02         0.1091619644E+02
      O         0.1205439160E+02         0.2036404660E+01         0.1310408659E+02
      O         0.1205488715E+02         0.1009701691E+02         0.1308770382E+02
      O         0.1009147090E+02         0.8027059510E+01         0.1309903070E+02
      O         0.1205638145E+02         0.6059544730E+01         0.1309657437E+02
      O         0.1008835023E+02         0.3998251800E+01         0.1310352924E+02
      O         0.1204714240E+02         0.1413587941E+02         0.1307781906E+02
      O         0.1412692462E+02         0.1206701061E+02         0.1308362137E+02
      O         0.2064209330E+01         0.1204213923E+02         0.1309103134E+02
      O         0.1609751136E+02         0.1009437235E+02         0.1308454604E+02
      O         0.4026225530E+01         0.1007956804E+02         0.1310665639E+02
      O         0.1410843858E+02         0.1612004385E+02         0.1308813268E+02
      O         0.4010923040E+01         0.2055845470E+01         0.1313615306E+02
      O         0.8029849710E+01         0.1009089310E+02         0.1309672218E+02
      O         0.2040316870E+01         0.8007671220E+01         0.1307804079E+02
      O         0.8028581300E+01         0.2032930820E+01         0.1311994170E+02
      O         0.1008695317E+02         0.1206710402E+02         0.1309677612E+02
      O         0.6070706190E+01         0.8021037750E+01         0.1310921355E+02
      O         0.2027918920E+01         0.4005489510E+01         0.1309158808E+02
      O         0.1412365423E+02         0.8027684770E+01         0.1308901560E+02
      O         0.6069661010E+01         0.1206412572E+02         0.1310987025E+02
      O         0.1008557202E+02         0.1610969489E+02         0.1310445032E+02
      O         0.6069263320E+01         0.3996570920E+01         0.1312101433E+02
      O         0.8019684230E+01         0.1414325964E+02         0.1308481970E+02
      O         0.4049528520E+01         0.1416484798E+02         0.1306339212E+02
      O         0.1609170395E+02         0.2040773670E+01         0.1310322439E+02
      O         0.2051120610E+01         0.4404217000E-01         0.1310569756E+02
      O         0.8033698450E+01         0.6054918230E+01         0.1310499584E+02
      O         0.1411896865E+02         0.4000325260E+01         0.1309673427E+02
      O         0.6057508870E+01         0.1612760378E+02         0.1312159111E+02
      O         0.1607605936E+02         0.1416993910E+02         0.1307698166E+02
      O         0.4020551330E+01         0.6049751720E+01         0.1311687997E+02
      O         0.1609229300E+02         0.6059975240E+01         0.1309957258E+02
     Ti         0.1024718686E+02         0.6217839200E+01         0.1323055787E+02
     Ti         0.1024795730E+02         0.2186125930E+01         0.1323592417E+02
     Ti         0.1024500345E+02         0.1025817130E+02         0.1322263192E+02
     Ti         0.1429052012E+02         0.1025787577E+02         0.1321245465E+02
     Ti         0.1427806552E+02         0.1430284473E+02         0.1320581266E+02
     Ti         0.1024056061E+02         0.1429549275E+02         0.1321924543E+02
     Ti         0.2205866990E+01         0.1025225906E+02         0.1320093627E+02
     Ti         0.2199264890E+01         0.2181111350E+01         0.1323584863E+02
     Ti         0.1428691653E+02         0.2184447890E+01         0.1323249091E+02
     Ti         0.6211957600E+01         0.1026048423E+02         0.1323136362E+02
     Ti         0.2244709630E+01         0.1436908615E+02         0.1273730726E+02
     Ti         0.6199627660E+01         0.1431159866E+02         0.1321665900E+02
     Ti         0.1428651026E+02         0.6216896350E+01         0.1322406170E+02
     Ti         0.6219001540E+01         0.6215663570E+01         0.1323814504E+02
     Ti         0.6216612630E+01         0.2183804390E+01         0.1324821860E+02
     Ti         0.2202628740E+01         0.6201940400E+01         0.1322308650E+02
     Ba         0.8144583160E+01         0.8154516220E+01         0.1506997090E+02
     Ba         0.1218336495E+02         0.8154765930E+01         0.1506013339E+02
     Ba         0.1218281201E+02         0.4114918920E+01         0.1507208987E+02
     Ba         0.8139047400E+01         0.1219376942E+02         0.1505960614E+02
     Ba         0.1218753896E+02         0.1219034607E+02         0.1505575554E+02
     Ba         0.4071703330E+01         0.1222727306E+02         0.1502018073E+02
     Ba         0.8141334440E+01         0.7778442000E-01         0.1507822665E+02
     Ba         0.4110174010E+01         0.8154532510E+01         0.1507216935E+02
     Ba         0.8146214030E+01         0.4114066400E+01         0.1508107720E+02
     Ba         0.4061365730E+01         0.3524584000E-01         0.1504223224E+02
     Ba         0.1218457032E+02         0.7812119000E-01         0.1507334775E+02
     Ba         0.1203420400E+00         0.1221844998E+02         0.1499893677E+02
     Ba         0.4113776440E+01         0.4111910750E+01         0.1508520726E+02
     Ba         0.9449504000E-01         0.8156140980E+01         0.1505270671E+02
     Ba         0.1185679000E+00         0.4502572000E-01         0.1503257044E+02
     Ba         0.8783872000E-01         0.4115257770E+01         0.1506754444E+02
      O         0.1419182971E+02         0.1016056922E+02         0.1511300153E+02
      O         0.1015961843E+02         0.2096667940E+01         0.1513837514E+02
      O         0.1015965219E+02         0.6127274020E+01         0.1513395967E+02
      O         0.1015899173E+02         0.1016099008E+02         0.1512475123E+02
      O         0.2093234190E+01         0.1014387285E+02         0.1510799797E+02
      O         0.1417929037E+02         0.1419635460E+02         0.1510624759E+02
      O         0.1015777851E+02         0.1419343197E+02         0.1511947918E+02
      O         0.6130902660E+01         0.1016074553E+02         0.1513224846E+02
      O         0.2087337340E+01         0.2110337700E+01         0.1513891221E+02
      O         0.1419062184E+02         0.2097025870E+01         0.1513068054E+02
      O         0.6124622270E+01         0.1419648859E+02         0.1512271259E+02
      O         0.6129149030E+01         0.2095477080E+01         0.1515108886E+02
      O         0.6133641510E+01         0.6126865720E+01         0.1514170021E+02
      O         0.1418845893E+02         0.6129024050E+01         0.1512661419E+02
      O         0.2094761420E+01         0.1420330950E+02         0.1524660775E+02
      O         0.2094711490E+01         0.6125042660E+01         0.1512414848E+02
     Ti         0.1006984711E+02         0.1007354895E+02         0.1715502606E+02
     Ti         0.6026116540E+01         0.1008056805E+02         0.1715173993E+02
     Ti         0.1007207241E+02         0.2001103500E+01         0.1716195802E+02
     Ti         0.1993389950E+01         0.1010152786E+02         0.1714799710E+02
     Ti         0.6024236070E+01         0.1991209250E+01         0.1715816620E+02
     Ti         0.1410751007E+02         0.1007396631E+02         0.1714785653E+02
     Ti         0.1007092020E+02         0.6039670980E+01         0.1715982862E+02
     Ti         0.1008465690E+02         0.1409929610E+02         0.1715931638E+02
     Ti         0.6034525340E+01         0.6040602150E+01         0.1716208030E+02
     Ti         0.1995053530E+01         0.1997582640E+01         0.1716258708E+02
     Ti         0.1985957570E+01         0.1408653979E+02         0.1707948741E+02
     Ti         0.6026059820E+01         0.1409800900E+02         0.1715792953E+02
     Ti         0.2001032850E+01         0.6052889630E+01         0.1716034011E+02
     Ti         0.1410348567E+02         0.6040181900E+01         0.1715573854E+02
     Ti         0.1413457973E+02         0.1409066435E+02         0.1715401698E+02
     Ti         0.1411094303E+02         0.1994911860E+01         0.1715566604E+02
      O         0.8229527570E+01         0.1020721482E+02         0.1716028896E+02
      O         0.8225082970E+01         0.2134493990E+01         0.1716939378E+02
      O         0.1020586155E+02         0.8223625320E+01         0.1716117032E+02
      O         0.1020675000E+02         0.1565285700E+00         0.1716410676E+02
      O         0.2140068640E+01         0.8225505220E+01         0.1716129311E+02
      O         0.2117162750E+01         0.1661558800E+00         0.1717986461E+02
      O         0.1423666483E+02         0.8225325450E+01         0.1715443923E+02
      O         0.6167682110E+01         0.1485558000E+00         0.1716948869E+02
      O         0.1461094400E+00         0.2149112190E+01         0.1716756201E+02
      O         0.4191678600E+01         0.1020643314E+02         0.1715388504E+02
      O         0.8235403590E+01         0.1423500494E+02         0.1716138442E+02
      O         0.6167613480E+01         0.4192177990E+01         0.1717010112E+02
      O         0.1471312000E+00         0.1020080879E+02         0.1714771431E+02
      O         0.9870747000E-01         0.1422410056E+02         0.1717117468E+02
      O         0.6172985910E+01         0.8225527640E+01         0.1716448419E+02
      O         0.1225824746E+02         0.1020379603E+02         0.1715434755E+02
      O         0.1021246472E+02         0.1225156010E+02         0.1715972277E+02
      O         0.4182226840E+01         0.2132475120E+01         0.1716988038E+02
      O         0.8224606130E+01         0.6172785420E+01         0.1716764219E+02
      O         0.2126301150E+01         0.1220310170E+02         0.1716004040E+02
      O         0.4189887080E+01         0.6174907770E+01         0.1716565545E+02
      O         0.1423452920E+02         0.4198396680E+01         0.1716042662E+02
      O         0.1020412910E+02         0.4192495350E+01         0.1716613306E+02
      O         0.1225578545E+02         0.2141277400E+01         0.1716463130E+02
      O         0.1423028141E+02         0.1224612382E+02         0.1714687949E+02
      O         0.1525464200E+00         0.6179766440E+01         0.1715992849E+02
      O         0.1225749978E+02         0.1423912019E+02         0.1715927845E+02
      O         0.6179001300E+01         0.1225076999E+02         0.1716166339E+02
      O         0.4195566740E+01         0.1422163358E+02         0.1717926560E+02
      O         0.2135937700E+01         0.4203412350E+01         0.1716865919E+02
      O         0.1225382927E+02         0.6176559750E+01         0.1716308267E+02
      O         0.1423437911E+02         0.1605607600E+00         0.1715563612E+02
      O         0.6131335810E+01         0.2098231210E+01         0.1919017420E+02
      O         0.2098541410E+01         0.2098045890E+01         0.1919018085E+02
      O         0.6131111340E+01         0.6130944350E+01         0.1919025059E+02
      O         0.2098116260E+01         0.1419621292E+02         0.1919026197E+02
      O         0.6131018900E+01         0.1016347532E+02         0.1919028949E+02
      O         0.1419650188E+02         0.2097883940E+01         0.1919029534E+02
      O         0.1016374752E+02         0.2097766410E+01         0.1919030698E+02
      O         0.2098593900E+01         0.1016375893E+02         0.1919032275E+02
      O         0.1419639897E+02         0.6130765030E+01         0.1919036376E+02
      O         0.1419640720E+02         0.1016331319E+02         0.1919036676E+02
      O         0.6131215320E+01         0.1419638412E+02         0.1919037140E+02
      O         0.2098387570E+01         0.6130841650E+01         0.1919038590E+02
      O         0.1016333997E+02         0.1016318804E+02         0.1919039749E+02
      O         0.1016380591E+02         0.6130906850E+01         0.1919040581E+02
      O         0.1016372109E+02         0.1419604360E+02         0.1919041321E+02
      O         0.1419633754E+02         0.1419601126E+02         0.1919044896E+02
     Ba         0.8154003070E+01         0.8808318000E-01         0.1925430799E+02
     Ba         0.8840603000E-01         0.8153658540E+01         0.1925432195E+02
     Ba         0.8153893720E+01         0.8153532980E+01         0.1925434635E+02
     Ba         0.4121205280E+01         0.1218629979E+02         0.1925441138E+02
     Ba         0.8827901000E-01         0.8807917000E-01         0.1925441139E+02
     Ba         0.4121092500E+01         0.8798758000E-01         0.1925441622E+02
     Ba         0.1218644109E+02         0.8153530050E+01         0.1925442125E+02
     Ba         0.1218649781E+02         0.8795333000E-01         0.1925442161E+02
     Ba         0.4120932520E+01         0.8153609260E+01         0.1925446739E+02
     Ba         0.8153954700E+01         0.4120845860E+01         0.1925448565E+02
     Ba         0.1218647419E+02         0.4120726850E+01         0.1925457382E+02
     Ba         0.8824512000E-01         0.1218631160E+02         0.1925459760E+02
     Ba         0.8153818950E+01         0.1218622406E+02         0.1925463748E+02
     Ba         0.4121123810E+01         0.4120866710E+01         0.1925473354E+02
     Ba         0.8832609000E-01         0.4120714020E+01         0.1925475497E+02
     Ba         0.1218652550E+02         0.1218609253E+02         0.1925475559E+02
     Ti         0.2193308100E+01         0.2192648440E+01         0.2109356333E+02
     Ti         0.6225849720E+01         0.6225645260E+01         0.2109356334E+02
     Ti         0.6225845380E+01         0.1025824927E+02         0.2109362271E+02
     Ti         0.1429128560E+02         0.6225585920E+01         0.2109367046E+02
     Ti         0.6225818390E+01         0.1429118249E+02         0.2109369656E+02
     Ti         0.1025851369E+02         0.1025828637E+02         0.2109371747E+02
     Ti         0.1429119825E+02         0.1429113360E+02         0.2109380738E+02
     Ti         0.2193142080E+01         0.6225626830E+01         0.2109381202E+02
     Ti         0.6225897940E+01         0.2192916770E+01         0.2109396197E+02
     Ti         0.2193043060E+01         0.1429121888E+02         0.2109399288E+02
     Ti         0.1025865943E+02         0.2192820000E+01         0.2109402721E+02
     Ti         0.1025866109E+02         0.6225681530E+01         0.2109406882E+02
     Ti         0.1429140119E+02         0.2192791090E+01         0.2109412130E+02
     Ti         0.1429148533E+02         0.1025818140E+02         0.2109412253E+02
     Ti         0.2193209470E+01         0.1025856562E+02         0.2109413093E+02
     Ti         0.1025863320E+02         0.1429111435E+02         0.2109419778E+02
      O         0.2033093130E+01         0.1609943788E+02         0.2121771596E+02
      O         0.1206670337E+02         0.1009795330E+02         0.2121777858E+02
      O         0.1413108710E+02         0.1609933288E+02         0.2121780539E+02
      O         0.6065633890E+01         0.1609941791E+02         0.2121785413E+02
      O         0.4001508550E+01         0.2032645720E+01         0.2121785884E+02
      O         0.6065439760E+01         0.8033778870E+01         0.2121787413E+02
      O         0.1009848001E+02         0.4000898840E+01         0.2121788543E+02
      O         0.1206679996E+02         0.2032600820E+01         0.2121789295E+02
      O         0.6065597650E+01         0.4001046660E+01         0.2121793577E+02
      O         0.4001142320E+01         0.1413105003E+02         0.2121794078E+02
      O         0.2032937270E+01         0.1206672404E+02         0.2121795070E+02
      O         0.1609957089E+02         0.2032806040E+01         0.2121796253E+02
      O         0.1609970135E+02         0.1009824540E+02         0.2121797546E+02
      O         0.2033044370E+01         0.8033807590E+01         0.2121797633E+02
      O         0.8033973500E+01         0.6065504670E+01         0.2121798322E+02
      O         0.2033305160E+01         0.4000898610E+01         0.2121798750E+02
      O         0.1206681533E+02         0.6065352730E+01         0.2121798914E+02
      O         0.6065791740E+01         0.1206649580E+02         0.2121799177E+02
      O         0.1206680791E+02         0.1413083697E+02         0.2121800404E+02
      O         0.1009840796E+02         0.1609920994E+02         0.2121801277E+02
      O         0.1413109104E+02         0.4000938360E+01         0.2121801605E+02
      O         0.1609955775E+02         0.6065463210E+01         0.2121801822E+02
      O         0.8033968670E+01         0.1009803433E+02         0.2121803778E+02
      O         0.8034005240E+01         0.2032725700E+01         0.2121803820E+02
      O         0.1413113043E+02         0.8033769940E+01         0.2121803893E+02
      O         0.1009851399E+02         0.1206655069E+02         0.2121806286E+02
      O         0.8033931090E+01         0.1413095888E+02         0.2121808871E+02
      O         0.1609945110E+02         0.1413113036E+02         0.2121808876E+02
      O         0.1413108280E+02         0.1206626492E+02         0.2121809697E+02
      O         0.1009846230E+02         0.8033730650E+01         0.2121817080E+02
      O         0.4001303620E+01         0.6065570320E+01         0.2121819910E+02
      O         0.4001282030E+01         0.1009842633E+02         0.2121824499E+02
