    9
    1    -0.3704022699E+03
      H         0.0000000000E+00         0.2016360550E+01         0.1211880491E+02
     Ti         0.2016360550E+01         0.2016360550E+01         0.1321539422E+02
      O         0.0000000000E+00         0.2016360550E+01         0.1310547617E+02
      O         0.2016360550E+01         0.0000000000E+00         0.1310547617E+02
     Ba         0.0000000000E+00         0.0000000000E+00         0.1501259159E+02
     Ti         0.2016360550E+01         0.2016360550E+01         0.1715623768E+02
      O         0.0000000000E+00         0.2016360550E+01         0.1713920380E+02
      O         0.2016360550E+01         0.0000000000E+00         0.1713920380E+02
      O         0.2016360550E+01         0.2016360550E+01         0.1510146608E+02
    9
    2    -0.3704022756E+03
      H         0.1970000000E-05         0.2016360550E+01         0.1211987702E+02
     Ti         0.2016360550E+01         0.2016360550E+01         0.1321539422E+02
      O         0.0000000000E+00         0.2016360550E+01         0.1310547617E+02
      O         0.2016360550E+01         0.0000000000E+00         0.1310547617E+02
     Ba         0.0000000000E+00         0.0000000000E+00         0.1501259159E+02
     Ti         0.2016360550E+01         0.2016360550E+01         0.1715623768E+02
      O         0.0000000000E+00         0.2016360550E+01         0.1713920380E+02
      O         0.2016360550E+01         0.0000000000E+00         0.1713920380E+02
      O         0.2016360550E+01         0.2016360550E+01         0.1510146608E+02
