   24
    1    -0.1021225026E+04
      H         0.0000000000E+00         0.2016376920E+01         0.1212693661E+02
     Ti         0.2016360550E+01         0.2016360550E+01         0.1322061820E+02
      O         0.0000000000E+00         0.2016360550E+01         0.1311318365E+02
      O         0.2016360550E+01         0.0000000000E+00         0.1311318365E+02
     Ba         0.0000000000E+00         0.0000000000E+00         0.1501259159E+02
     Ti         0.2016360550E+01         0.2016360550E+01         0.1715623768E+02
      O         0.0000000000E+00         0.2016360550E+01         0.1713920380E+02
      O         0.2016360550E+01         0.0000000000E+00         0.1713920380E+02
      O         0.2016360550E+01         0.2016360550E+01         0.1510146608E+02
     Ba         0.0000000000E+00         0.0000000000E+00         0.1913561581E+02
     Ti         0.2016360550E+01         0.2016360550E+01         0.2116708400E+02
      O         0.0000000000E+00         0.2016360550E+01         0.2116708499E+02
      O         0.2016360550E+01         0.0000000000E+00         0.2116708499E+02
      O         0.2016360550E+01         0.2016360550E+01         0.1914846179E+02
     Ba         0.0000000000E+00         0.0000000000E+00         0.2319855497E+02
     Ti         0.2016360550E+01         0.2016360550E+01         0.2517793036E+02
      O         0.0000000000E+00         0.2016360550E+01         0.2519496392E+02
      O         0.2016360550E+01         0.0000000000E+00         0.2519496392E+02
      O         0.2016360550E+01         0.2016360550E+01         0.2318570767E+02
     Ba         0.0000000000E+00         0.0000000000E+00         0.2732157739E+02
     Ti         0.2016360550E+01         0.2016360550E+01         0.2911355429E+02
      O         0.0000000000E+00         0.2016360550E+01         0.2922098758E+02
      O         0.2016360550E+01         0.0000000000E+00         0.2922098758E+02
      O         0.2016360550E+01         0.2016360550E+01         0.2723270339E+02
   24
    2    -0.1021225029E+04
      H        -0.6240000000E-05         0.2016377850E+01         0.1212786756E+02
     Ti         0.2016360550E+01         0.2016360550E+01         0.1322061820E+02
      O         0.0000000000E+00         0.2016360550E+01         0.1311318365E+02
      O         0.2016360550E+01         0.0000000000E+00         0.1311318365E+02
     Ba         0.0000000000E+00         0.0000000000E+00         0.1501259159E+02
     Ti         0.2016360550E+01         0.2016360550E+01         0.1715623768E+02
      O         0.0000000000E+00         0.2016360550E+01         0.1713920380E+02
      O         0.2016360550E+01         0.0000000000E+00         0.1713920380E+02
      O         0.2016360550E+01         0.2016360550E+01         0.1510146608E+02
     Ba         0.0000000000E+00         0.0000000000E+00         0.1913561581E+02
     Ti         0.2016360550E+01         0.2016360550E+01         0.2116708400E+02
      O         0.0000000000E+00         0.2016360550E+01         0.2116708499E+02
      O         0.2016360550E+01         0.0000000000E+00         0.2116708499E+02
      O         0.2016360550E+01         0.2016360550E+01         0.1914846179E+02
     Ba         0.0000000000E+00         0.0000000000E+00         0.2319855497E+02
     Ti         0.2016360550E+01         0.2016360550E+01         0.2517793036E+02
      O         0.0000000000E+00         0.2016360550E+01         0.2519496392E+02
      O         0.2016360550E+01         0.0000000000E+00         0.2519496392E+02
      O         0.2016360550E+01         0.2016360550E+01         0.2318570767E+02
     Ba         0.0000000000E+00         0.0000000000E+00         0.2732157739E+02
     Ti         0.2016360550E+01         0.2016360550E+01         0.2911355429E+02
      O         0.0000000000E+00         0.2016360550E+01         0.2922098758E+02
      O         0.2016360550E+01         0.0000000000E+00         0.2922098758E+02
      O         0.2016360550E+01         0.2016360550E+01         0.2723270339E+02
