   14
    1    -0.5873559968E+03
      H        -0.3319900000E-03         0.2016350870E+01         0.1197058085E+02
     Ti         0.2016250450E+01         0.2016321240E+01         0.1321826769E+02
      O        -0.4099000000E-04         0.2016380490E+01         0.1295061183E+02
      O         0.2016383160E+01         0.7779000000E-04         0.1297107705E+02
     Ba         0.0000000000E+00         0.0000000000E+00         0.1501259159E+02
     Ti         0.2016360550E+01         0.2016360550E+01         0.1715623768E+02
      O         0.0000000000E+00         0.2016360550E+01         0.1713920380E+02
      O         0.2016360550E+01         0.0000000000E+00         0.1713920380E+02
      O         0.2016360550E+01         0.2016360550E+01         0.1510146608E+02
     Ba         0.0000000000E+00         0.0000000000E+00         0.1913561581E+02
     Ti         0.2016360550E+01         0.2016360550E+01         0.2116708400E+02
      O         0.0000000000E+00         0.2016360550E+01         0.2116708499E+02
      O         0.2016360550E+01         0.0000000000E+00         0.2116708499E+02
      O         0.2016360550E+01         0.2016360550E+01         0.1914846179E+02
   14
    2    -0.5873560233E+03
      H        -0.3244200000E-03         0.2016350870E+01         0.1197061581E+02
     Ti         0.2016270690E+01         0.2016319670E+01         0.1321783318E+02
      O        -0.4099000000E-04         0.2016380490E+01         0.1294888985E+02
      O         0.2016368710E+01         0.7779000000E-04         0.1297133387E+02
     Ba         0.0000000000E+00         0.0000000000E+00         0.1501259159E+02
     Ti         0.2016360550E+01         0.2016360550E+01         0.1715623768E+02
      O         0.0000000000E+00         0.2016360550E+01         0.1713920380E+02
      O         0.2016360550E+01         0.0000000000E+00         0.1713920380E+02
      O         0.2016360550E+01         0.2016360550E+01         0.1510146608E+02
     Ba         0.0000000000E+00         0.0000000000E+00         0.1913561581E+02
     Ti         0.2016360550E+01         0.2016360550E+01         0.2116708400E+02
      O         0.0000000000E+00         0.2016360550E+01         0.2116708499E+02
      O         0.2016360550E+01         0.0000000000E+00         0.2116708499E+02
      O         0.2016360550E+01         0.2016360550E+01         0.1914846179E+02
   14
    3    -0.5873560438E+03
      H        -0.3244200000E-03         0.2016350870E+01         0.1197058096E+02
     Ti         0.2016301320E+01         0.2016315000E+01         0.1321728543E+02
      O        -0.3985000000E-04         0.2016380490E+01         0.1294606559E+02
      O         0.2016345920E+01         0.7779000000E-04         0.1297168983E+02
     Ba         0.0000000000E+00         0.0000000000E+00         0.1501259159E+02
     Ti         0.2016360550E+01         0.2016360550E+01         0.1715623768E+02
      O         0.0000000000E+00         0.2016360550E+01         0.1713920380E+02
      O         0.2016360550E+01         0.0000000000E+00         0.1713920380E+02
      O         0.2016360550E+01         0.2016360550E+01         0.1510146608E+02
     Ba         0.0000000000E+00         0.0000000000E+00         0.1913561581E+02
     Ti         0.2016360550E+01         0.2016360550E+01         0.2116708400E+02
      O         0.0000000000E+00         0.2016360550E+01         0.2116708499E+02
      O         0.2016360550E+01         0.0000000000E+00         0.2116708499E+02
      O         0.2016360550E+01         0.2016360550E+01         0.1914846179E+02
   14
    4    -0.5873560561E+03
      H        -0.3188600000E-03         0.2016350870E+01         0.1196951350E+02
     Ti         0.2016248750E+01         0.2016306270E+01         0.1321669380E+02
      O        -0.3028000000E-04         0.2016378820E+01         0.1294262152E+02
      O         0.2016332460E+01         0.8086000000E-04         0.1297215194E+02
     Ba         0.0000000000E+00         0.0000000000E+00         0.1501259159E+02
     Ti         0.2016360550E+01         0.2016360550E+01         0.1715623768E+02
      O         0.0000000000E+00         0.2016360550E+01         0.1713920380E+02
      O         0.2016360550E+01         0.0000000000E+00         0.1713920380E+02
      O         0.2016360550E+01         0.2016360550E+01         0.1510146608E+02
     Ba         0.0000000000E+00         0.0000000000E+00         0.1913561581E+02
     Ti         0.2016360550E+01         0.2016360550E+01         0.2116708400E+02
      O         0.0000000000E+00         0.2016360550E+01         0.2116708499E+02
      O         0.2016360550E+01         0.0000000000E+00         0.2116708499E+02
      O         0.2016360550E+01         0.2016360550E+01         0.1914846179E+02
   14
    5    -0.5873561031E+03
      H        -0.3102100000E-03         0.2016350870E+01         0.1196687300E+02
     Ti         0.2016266010E+01         0.2016305650E+01         0.1321679857E+02
      O        -0.3311000000E-04         0.2016378820E+01         0.1294276001E+02
      O         0.2016303490E+01         0.8780000000E-04         0.1297267778E+02
     Ba         0.0000000000E+00         0.0000000000E+00         0.1501259159E+02
     Ti         0.2016360550E+01         0.2016360550E+01         0.1715623768E+02
      O         0.0000000000E+00         0.2016360550E+01         0.1713920380E+02
      O         0.2016360550E+01         0.0000000000E+00         0.1713920380E+02
      O         0.2016360550E+01         0.2016360550E+01         0.1510146608E+02
     Ba         0.0000000000E+00         0.0000000000E+00         0.1913561581E+02
     Ti         0.2016360550E+01         0.2016360550E+01         0.2116708400E+02
      O         0.0000000000E+00         0.2016360550E+01         0.2116708499E+02
      O         0.2016360550E+01         0.0000000000E+00         0.2116708499E+02
      O         0.2016360550E+01         0.2016360550E+01         0.1914846179E+02
   14
    6    -0.5873561293E+03
      H        -0.2846300000E-03         0.2016350870E+01         0.1196312286E+02
     Ti         0.2016270850E+01         0.2016304400E+01         0.1321683418E+02
      O        -0.3311000000E-04         0.2016378820E+01         0.1294262153E+02
      O         0.2016305400E+01         0.8888000000E-04         0.1297266233E+02
     Ba         0.0000000000E+00         0.0000000000E+00         0.1501259159E+02
     Ti         0.2016360550E+01         0.2016360550E+01         0.1715623768E+02
      O         0.0000000000E+00         0.2016360550E+01         0.1713920380E+02
      O         0.2016360550E+01         0.0000000000E+00         0.1713920380E+02
      O         0.2016360550E+01         0.2016360550E+01         0.1510146608E+02
     Ba         0.0000000000E+00         0.0000000000E+00         0.1913561581E+02
     Ti         0.2016360550E+01         0.2016360550E+01         0.2116708400E+02
      O         0.0000000000E+00         0.2016360550E+01         0.2116708499E+02
      O         0.2016360550E+01         0.0000000000E+00         0.2116708499E+02
      O         0.2016360550E+01         0.2016360550E+01         0.1914846179E+02
   14
    7    -0.5873561380E+03
      H         0.1095750000E-02         0.2016350870E+01         0.1195994369E+02
     Ti         0.2016273630E+01         0.2016304400E+01         0.1321679919E+02
      O        -0.3435000000E-04         0.2016378820E+01         0.1294164987E+02
      O         0.2016305970E+01         0.8888000000E-04         0.1297267769E+02
     Ba         0.0000000000E+00         0.0000000000E+00         0.1501259159E+02
     Ti         0.2016360550E+01         0.2016360550E+01         0.1715623768E+02
      O         0.0000000000E+00         0.2016360550E+01         0.1713920380E+02
      O         0.2016360550E+01         0.0000000000E+00         0.1713920380E+02
      O         0.2016360550E+01         0.2016360550E+01         0.1510146608E+02
     Ba         0.0000000000E+00         0.0000000000E+00         0.1913561581E+02
     Ti         0.2016360550E+01         0.2016360550E+01         0.2116708400E+02
      O         0.0000000000E+00         0.2016360550E+01         0.2116708499E+02
      O         0.2016360550E+01         0.0000000000E+00         0.2116708499E+02
      O         0.2016360550E+01         0.2016360550E+01         0.1914846179E+02
   14
    8    -0.5873561773E+03
      H         0.1061110000E-02         0.2016350870E+01         0.1196077726E+02
     Ti         0.2016331620E+01         0.2016304400E+01         0.1321659628E+02
      O        -0.3108000000E-04         0.2016378820E+01         0.1293958886E+02
      O         0.2016301510E+01         0.8888000000E-04         0.1297275960E+02
     Ba         0.0000000000E+00         0.0000000000E+00         0.1501259159E+02
     Ti         0.2016360550E+01         0.2016360550E+01         0.1715623768E+02
      O         0.0000000000E+00         0.2016360550E+01         0.1713920380E+02
      O         0.2016360550E+01         0.0000000000E+00         0.1713920380E+02
      O         0.2016360550E+01         0.2016360550E+01         0.1510146608E+02
     Ba         0.0000000000E+00         0.0000000000E+00         0.1913561581E+02
     Ti         0.2016360550E+01         0.2016360550E+01         0.2116708400E+02
      O         0.0000000000E+00         0.2016360550E+01         0.2116708499E+02
      O         0.2016360550E+01         0.0000000000E+00         0.2116708499E+02
      O         0.2016360550E+01         0.2016360550E+01         0.1914846179E+02
   14
    9    -0.5873562050E+03
      H         0.1045360000E-02         0.2016350870E+01         0.1196066023E+02
     Ti         0.2016424180E+01         0.2016302450E+01         0.1321625238E+02
      O        -0.2151000000E-04         0.2016378820E+01         0.1293682146E+02
      O         0.2016301510E+01         0.8888000000E-04         0.1297291785E+02
     Ba         0.0000000000E+00         0.0000000000E+00         0.1501259159E+02
     Ti         0.2016360550E+01         0.2016360550E+01         0.1715623768E+02
      O         0.0000000000E+00         0.2016360550E+01         0.1713920380E+02
      O         0.2016360550E+01         0.0000000000E+00         0.1713920380E+02
      O         0.2016360550E+01         0.2016360550E+01         0.1510146608E+02
     Ba         0.0000000000E+00         0.0000000000E+00         0.1913561581E+02
     Ti         0.2016360550E+01         0.2016360550E+01         0.2116708400E+02
      O         0.0000000000E+00         0.2016360550E+01         0.2116708499E+02
      O         0.2016360550E+01         0.0000000000E+00         0.2116708499E+02
      O         0.2016360550E+01         0.2016360550E+01         0.1914846179E+02
   14
   10    -0.5873562196E+03
      H         0.1025090000E-02         0.2016350870E+01         0.1195977526E+02
     Ti         0.2016498980E+01         0.2016300520E+01         0.1321575355E+02
      O        -0.1722000000E-04         0.2016378820E+01         0.1293684005E+02
      O         0.2016314210E+01         0.9179000000E-04         0.1297316692E+02
     Ba         0.0000000000E+00         0.0000000000E+00         0.1501259159E+02
     Ti         0.2016360550E+01         0.2016360550E+01         0.1715623768E+02
      O         0.0000000000E+00         0.2016360550E+01         0.1713920380E+02
      O         0.2016360550E+01         0.0000000000E+00         0.1713920380E+02
      O         0.2016360550E+01         0.2016360550E+01         0.1510146608E+02
     Ba         0.0000000000E+00         0.0000000000E+00         0.1913561581E+02
     Ti         0.2016360550E+01         0.2016360550E+01         0.2116708400E+02
      O         0.0000000000E+00         0.2016360550E+01         0.2116708499E+02
      O         0.2016360550E+01         0.0000000000E+00         0.2116708499E+02
      O         0.2016360550E+01         0.2016360550E+01         0.1914846179E+02
   14
   11    -0.5873562337E+03
      H         0.9839400000E-03         0.2016350870E+01         0.1195833042E+02
     Ti         0.2016535810E+01         0.2016281250E+01         0.1321521925E+02
      O        -0.1636000000E-04         0.2016378820E+01         0.1293682170E+02
      O         0.2016364860E+01         0.9179000000E-04         0.1297345969E+02
     Ba         0.0000000000E+00         0.0000000000E+00         0.1501259159E+02
     Ti         0.2016360550E+01         0.2016360550E+01         0.1715623768E+02
      O         0.0000000000E+00         0.2016360550E+01         0.1713920380E+02
      O         0.2016360550E+01         0.0000000000E+00         0.1713920380E+02
      O         0.2016360550E+01         0.2016360550E+01         0.1510146608E+02
     Ba         0.0000000000E+00         0.0000000000E+00         0.1913561581E+02
     Ti         0.2016360550E+01         0.2016360550E+01         0.2116708400E+02
      O         0.0000000000E+00         0.2016360550E+01         0.2116708499E+02
      O         0.2016360550E+01         0.0000000000E+00         0.2116708499E+02
      O         0.2016360550E+01         0.2016360550E+01         0.1914846179E+02
   14
   12    -0.5873562463E+03
      H         0.8610500000E-03         0.2016350870E+01         0.1195662379E+02
     Ti         0.2016499300E+01         0.2016281250E+01         0.1321448437E+02
      O        -0.1076000000E-04         0.2016378820E+01         0.1293654876E+02
      O         0.2016369020E+01         0.9432000000E-04         0.1297339442E+02
     Ba         0.0000000000E+00         0.0000000000E+00         0.1501259159E+02
     Ti         0.2016360550E+01         0.2016360550E+01         0.1715623768E+02
      O         0.0000000000E+00         0.2016360550E+01         0.1713920380E+02
      O         0.2016360550E+01         0.0000000000E+00         0.1713920380E+02
      O         0.2016360550E+01         0.2016360550E+01         0.1510146608E+02
     Ba         0.0000000000E+00         0.0000000000E+00         0.1913561581E+02
     Ti         0.2016360550E+01         0.2016360550E+01         0.2116708400E+02
      O         0.0000000000E+00         0.2016360550E+01         0.2116708499E+02
      O         0.2016360550E+01         0.0000000000E+00         0.2116708499E+02
      O         0.2016360550E+01         0.2016360550E+01         0.1914846179E+02
   14
   13    -0.5873562563E+03
      H         0.8439900000E-03         0.2016350870E+01         0.1195677521E+02
     Ti         0.2016494680E+01         0.2016281250E+01         0.1321454733E+02
      O        -0.2940000000E-05         0.2016378820E+01         0.1293587969E+02
      O         0.2016372320E+01         0.9681000000E-04         0.1297319620E+02
     Ba         0.0000000000E+00         0.0000000000E+00         0.1501259159E+02
     Ti         0.2016360550E+01         0.2016360550E+01         0.1715623768E+02
      O         0.0000000000E+00         0.2016360550E+01         0.1713920380E+02
      O         0.2016360550E+01         0.0000000000E+00         0.1713920380E+02
      O         0.2016360550E+01         0.2016360550E+01         0.1510146608E+02
     Ba         0.0000000000E+00         0.0000000000E+00         0.1913561581E+02
     Ti         0.2016360550E+01         0.2016360550E+01         0.2116708400E+02
      O         0.0000000000E+00         0.2016360550E+01         0.2116708499E+02
      O         0.2016360550E+01         0.0000000000E+00         0.2116708499E+02
      O         0.2016360550E+01         0.2016360550E+01         0.1914846179E+02
   14
   14    -0.5873562696E+03
      H         0.8356900000E-03         0.2016350870E+01         0.1195673273E+02
     Ti         0.2016494680E+01         0.2016281250E+01         0.1321453306E+02
      O         0.1181000000E-04         0.2016379760E+01         0.1293487883E+02
      O         0.2016383370E+01         0.1038500000E-03         0.1297290479E+02
     Ba         0.0000000000E+00         0.0000000000E+00         0.1501259159E+02
     Ti         0.2016360550E+01         0.2016360550E+01         0.1715623768E+02
      O         0.0000000000E+00         0.2016360550E+01         0.1713920380E+02
      O         0.2016360550E+01         0.0000000000E+00         0.1713920380E+02
      O         0.2016360550E+01         0.2016360550E+01         0.1510146608E+02
     Ba         0.0000000000E+00         0.0000000000E+00         0.1913561581E+02
     Ti         0.2016360550E+01         0.2016360550E+01         0.2116708400E+02
      O         0.0000000000E+00         0.2016360550E+01         0.2116708499E+02
      O         0.2016360550E+01         0.0000000000E+00         0.2116708499E+02
      O         0.2016360550E+01         0.2016360550E+01         0.1914846179E+02
   14
   15    -0.5873562841E+03
      H         0.8232600000E-03         0.2016350870E+01         0.1195645950E+02
     Ti         0.2016496180E+01         0.2016280170E+01         0.1321446235E+02
      O         0.5576000000E-04         0.2016384140E+01         0.1293373729E+02
      O         0.2016387170E+01         0.1062800000E-03         0.1297294043E+02
     Ba         0.0000000000E+00         0.0000000000E+00         0.1501259159E+02
     Ti         0.2016360550E+01         0.2016360550E+01         0.1715623768E+02
      O         0.0000000000E+00         0.2016360550E+01         0.1713920380E+02
      O         0.2016360550E+01         0.0000000000E+00         0.1713920380E+02
      O         0.2016360550E+01         0.2016360550E+01         0.1510146608E+02
     Ba         0.0000000000E+00         0.0000000000E+00         0.1913561581E+02
     Ti         0.2016360550E+01         0.2016360550E+01         0.2116708400E+02
      O         0.0000000000E+00         0.2016360550E+01         0.2116708499E+02
      O         0.2016360550E+01         0.0000000000E+00         0.2116708499E+02
      O         0.2016360550E+01         0.2016360550E+01         0.1914846179E+02
   14
   16    -0.5873562883E+03
      H         0.8065100000E-03         0.2016350870E+01         0.1195579923E+02
     Ti         0.2016506440E+01         0.2016278510E+01         0.1321431544E+02
      O         0.5834000000E-04         0.2016384140E+01         0.1293386592E+02
      O         0.2016404330E+01         0.1109300000E-03         0.1297304495E+02
     Ba         0.0000000000E+00         0.0000000000E+00         0.1501259159E+02
     Ti         0.2016360550E+01         0.2016360550E+01         0.1715623768E+02
      O         0.0000000000E+00         0.2016360550E+01         0.1713920380E+02
      O         0.2016360550E+01         0.0000000000E+00         0.1713920380E+02
      O         0.2016360550E+01         0.2016360550E+01         0.1510146608E+02
     Ba         0.0000000000E+00         0.0000000000E+00         0.1913561581E+02
     Ti         0.2016360550E+01         0.2016360550E+01         0.2116708400E+02
      O         0.0000000000E+00         0.2016360550E+01         0.2116708499E+02
      O         0.2016360550E+01         0.0000000000E+00         0.2116708499E+02
      O         0.2016360550E+01         0.2016360550E+01         0.1914846179E+02
   14
   17    -0.5873562925E+03
      H         0.7664100000E-03         0.2016350870E+01         0.1195484244E+02
     Ti         0.2016531940E+01         0.2016274240E+01         0.1321413217E+02
      O         0.5974000000E-04         0.2016384140E+01         0.1293385173E+02
      O         0.2016473910E+01         0.1324800000E-03         0.1297309684E+02
     Ba         0.0000000000E+00         0.0000000000E+00         0.1501259159E+02
     Ti         0.2016360550E+01         0.2016360550E+01         0.1715623768E+02
      O         0.0000000000E+00         0.2016360550E+01         0.1713920380E+02
      O         0.2016360550E+01         0.0000000000E+00         0.1713920380E+02
      O         0.2016360550E+01         0.2016360550E+01         0.1510146608E+02
     Ba         0.0000000000E+00         0.0000000000E+00         0.1913561581E+02
     Ti         0.2016360550E+01         0.2016360550E+01         0.2116708400E+02
      O         0.0000000000E+00         0.2016360550E+01         0.2116708499E+02
      O         0.2016360550E+01         0.0000000000E+00         0.2116708499E+02
      O         0.2016360550E+01         0.2016360550E+01         0.1914846179E+02
   14
   18    -0.5873562964E+03
      H         0.6205700000E-03         0.2016350870E+01         0.1195378948E+02
     Ti         0.2016526870E+01         0.2016272380E+01         0.1321415882E+02
      O         0.6339000000E-04         0.2016384790E+01         0.1293372095E+02
      O         0.2016464490E+01         0.1324800000E-03         0.1297309684E+02
     Ba         0.0000000000E+00         0.0000000000E+00         0.1501259159E+02
     Ti         0.2016360550E+01         0.2016360550E+01         0.1715623768E+02
      O         0.0000000000E+00         0.2016360550E+01         0.1713920380E+02
      O         0.2016360550E+01         0.0000000000E+00         0.1713920380E+02
      O         0.2016360550E+01         0.2016360550E+01         0.1510146608E+02
     Ba         0.0000000000E+00         0.0000000000E+00         0.1913561581E+02
     Ti         0.2016360550E+01         0.2016360550E+01         0.2116708400E+02
      O         0.0000000000E+00         0.2016360550E+01         0.2116708499E+02
      O         0.2016360550E+01         0.0000000000E+00         0.2116708499E+02
      O         0.2016360550E+01         0.2016360550E+01         0.1914846179E+02
   14
   19    -0.5873563027E+03
      H         0.6098500000E-03         0.2016350870E+01         0.1195397132E+02
     Ti         0.2016524340E+01         0.2016271540E+01         0.1321413570E+02
      O         0.6680000000E-04         0.2016385700E+01         0.1293337360E+02
      O         0.2016457000E+01         0.1324800000E-03         0.1297308582E+02
     Ba         0.0000000000E+00         0.0000000000E+00         0.1501259159E+02
     Ti         0.2016360550E+01         0.2016360550E+01         0.1715623768E+02
      O         0.0000000000E+00         0.2016360550E+01         0.1713920380E+02
      O         0.2016360550E+01         0.0000000000E+00         0.1713920380E+02
      O         0.2016360550E+01         0.2016360550E+01         0.1510146608E+02
     Ba         0.0000000000E+00         0.0000000000E+00         0.1913561581E+02
     Ti         0.2016360550E+01         0.2016360550E+01         0.2116708400E+02
      O         0.0000000000E+00         0.2016360550E+01         0.2116708499E+02
      O         0.2016360550E+01         0.0000000000E+00         0.2116708499E+02
      O         0.2016360550E+01         0.2016360550E+01         0.1914846179E+02
   14
   20    -0.5873563090E+03
      H         0.6001700000E-03         0.2016350870E+01         0.1195400292E+02
     Ti         0.2016515470E+01         0.2016269060E+01         0.1321409163E+02
      O         0.7431000000E-04         0.2016387900E+01         0.1293285486E+02
      O         0.2016457000E+01         0.1324800000E-03         0.1297308984E+02
     Ba         0.0000000000E+00         0.0000000000E+00         0.1501259159E+02
     Ti         0.2016360550E+01         0.2016360550E+01         0.1715623768E+02
      O         0.0000000000E+00         0.2016360550E+01         0.1713920380E+02
      O         0.2016360550E+01         0.0000000000E+00         0.1713920380E+02
      O         0.2016360550E+01         0.2016360550E+01         0.1510146608E+02
     Ba         0.0000000000E+00         0.0000000000E+00         0.1913561581E+02
     Ti         0.2016360550E+01         0.2016360550E+01         0.2116708400E+02
      O         0.0000000000E+00         0.2016360550E+01         0.2116708499E+02
      O         0.2016360550E+01         0.0000000000E+00         0.2116708499E+02
      O         0.2016360550E+01         0.2016360550E+01         0.1914846179E+02
