    9
    1    -0.3703963517E+03
      H         0.0000000000E+00         0.2016360550E+01         0.1209346154E+02
     Ti         0.2016360550E+01         0.2016360550E+01         0.1321539422E+02
      O         0.0000000000E+00         0.2016360550E+01         0.1310547617E+02
      O         0.2016360550E+01         0.0000000000E+00         0.1310547617E+02
     Ba         0.0000000000E+00         0.0000000000E+00         0.1501259159E+02
     Ti         0.2016360550E+01         0.2016360550E+01         0.1715623768E+02
      O         0.0000000000E+00         0.2016360550E+01         0.1713920380E+02
      O         0.2016360550E+01         0.0000000000E+00         0.1713920380E+02
      O         0.2016360550E+01         0.2016360550E+01         0.1510146608E+02
    9
    2    -0.3703973446E+03
      H         0.0000000000E+00         0.2016360550E+01         0.1211359601E+02
     Ti         0.2016360550E+01         0.2016360550E+01         0.1321539422E+02
      O         0.0000000000E+00         0.2016360550E+01         0.1310547617E+02
      O         0.2016360550E+01         0.0000000000E+00         0.1310547617E+02
     Ba         0.0000000000E+00         0.0000000000E+00         0.1501259159E+02
     Ti         0.2016360550E+01         0.2016360550E+01         0.1715623768E+02
      O         0.0000000000E+00         0.2016360550E+01         0.1713920380E+02
      O         0.2016360550E+01         0.0000000000E+00         0.1713920380E+02
      O         0.2016360550E+01         0.2016360550E+01         0.1510146608E+02
    9
    3    -0.3703974055E+03
      H         0.0000000000E+00         0.2016360550E+01         0.1211809705E+02
     Ti         0.2016360550E+01         0.2016360550E+01         0.1321539422E+02
      O         0.0000000000E+00         0.2016360550E+01         0.1310547617E+02
      O         0.2016360550E+01         0.0000000000E+00         0.1310547617E+02
     Ba         0.0000000000E+00         0.0000000000E+00         0.1501259159E+02
     Ti         0.2016360550E+01         0.2016360550E+01         0.1715623768E+02
      O         0.0000000000E+00         0.2016360550E+01         0.1713920380E+02
      O         0.2016360550E+01         0.0000000000E+00         0.1713920380E+02
      O         0.2016360550E+01         0.2016360550E+01         0.1510146608E+02
    9
    4    -0.3703974091E+03
      H         0.0000000000E+00         0.2016360550E+01         0.1211880867E+02
     Ti         0.2016360550E+01         0.2016360550E+01         0.1321539422E+02
      O         0.0000000000E+00         0.2016360550E+01         0.1310547617E+02
      O         0.2016360550E+01         0.0000000000E+00         0.1310547617E+02
     Ba         0.0000000000E+00         0.0000000000E+00         0.1501259159E+02
     Ti         0.2016360550E+01         0.2016360550E+01         0.1715623768E+02
      O         0.0000000000E+00         0.2016360550E+01         0.1713920380E+02
      O         0.2016360550E+01         0.0000000000E+00         0.1713920380E+02
      O         0.2016360550E+01         0.2016360550E+01         0.1510146608E+02
