   24
    1    -0.1021255168E+04
      H        -0.7610000000E-05         0.2119969950E+01         0.1184941399E+02
     Ti         0.2016360980E+01         0.1877369180E+01         0.1317650077E+02
      O        -0.4330000000E-05         0.2025749300E+01         0.1281980955E+02
      O         0.2016355230E+01         0.1132976000E-01         0.1291523400E+02
     Ba         0.2204000000E-04         0.3980750750E+01         0.1517195680E+02
      O         0.2016391200E+01         0.1979557020E+01         0.1498228315E+02
     Ti         0.2016373540E+01         0.1993837950E+01         0.1722529055E+02
      O         0.2367000000E-04         0.1986326080E+01         0.1707396014E+02
      O         0.2016379790E+01         0.4004573250E+01         0.1708232108E+02
     Ba         0.0000000000E+00         0.0000000000E+00         0.1913561581E+02
      O         0.2016360550E+01         0.2016360550E+01         0.1914846179E+02
     Ti         0.2016360550E+01         0.2016360550E+01         0.2116708400E+02
      O         0.0000000000E+00         0.2016360550E+01         0.2116708499E+02
      O         0.2016360550E+01         0.0000000000E+00         0.2116708499E+02
     Ba         0.0000000000E+00         0.0000000000E+00         0.2319855497E+02
      O         0.2016360550E+01         0.2016360550E+01         0.2318570767E+02
     Ti         0.2016360550E+01         0.2016360550E+01         0.2517793036E+02
      O         0.0000000000E+00         0.2016360550E+01         0.2519496392E+02
      O         0.2016360550E+01         0.0000000000E+00         0.2519496392E+02
     Ba         0.0000000000E+00         0.0000000000E+00         0.2732157739E+02
      O         0.2016360550E+01         0.2016360550E+01         0.2723270339E+02
     Ti         0.2016360550E+01         0.2016360550E+01         0.2911355429E+02
      O         0.0000000000E+00         0.2016360550E+01         0.2922098758E+02
      O         0.2016360550E+01         0.0000000000E+00         0.2922098758E+02
   24
    2    -0.1021255211E+04
      H        -0.7610000000E-05         0.2123803500E+01         0.1184759360E+02
     Ti         0.2016360980E+01         0.1876275700E+01         0.1317645381E+02
      O        -0.4330000000E-05         0.2022323560E+01         0.1282131610E+02
      O         0.2016355800E+01         0.1142133000E-01         0.1291532638E+02
     Ba         0.2204000000E-04         0.3980555290E+01         0.1517170154E+02
      O         0.2016391200E+01         0.1978711600E+01         0.1498220388E+02
     Ti         0.2016373540E+01         0.1993556260E+01         0.1722550995E+02
      O         0.2367000000E-04         0.1986169760E+01         0.1707394205E+02
      O         0.2016379790E+01         0.4004428260E+01         0.1708231889E+02
     Ba         0.0000000000E+00         0.0000000000E+00         0.1913561581E+02
      O         0.2016360550E+01         0.2016360550E+01         0.1914846179E+02
     Ti         0.2016360550E+01         0.2016360550E+01         0.2116708400E+02
      O         0.0000000000E+00         0.2016360550E+01         0.2116708499E+02
      O         0.2016360550E+01         0.0000000000E+00         0.2116708499E+02
     Ba         0.0000000000E+00         0.0000000000E+00         0.2319855497E+02
      O         0.2016360550E+01         0.2016360550E+01         0.2318570767E+02
     Ti         0.2016360550E+01         0.2016360550E+01         0.2517793036E+02
      O         0.0000000000E+00         0.2016360550E+01         0.2519496392E+02
      O         0.2016360550E+01         0.0000000000E+00         0.2519496392E+02
     Ba         0.0000000000E+00         0.0000000000E+00         0.2732157739E+02
      O         0.2016360550E+01         0.2016360550E+01         0.2723270339E+02
     Ti         0.2016360550E+01         0.2016360550E+01         0.2911355429E+02
      O         0.0000000000E+00         0.2016360550E+01         0.2922098758E+02
      O         0.2016360550E+01         0.0000000000E+00         0.2922098758E+02
   24
    3    -0.1021255314E+04
      H        -0.6170000000E-05         0.2130263980E+01         0.1185133465E+02
     Ti         0.2016360980E+01         0.1873938480E+01         0.1317645194E+02
      O        -0.6000000000E-05         0.2020123210E+01         0.1281844572E+02
      O         0.2016355800E+01         0.1133439000E-01         0.1291533055E+02
     Ba         0.2204000000E-04         0.3979976840E+01         0.1517124227E+02
      O         0.2016393160E+01         0.1976907130E+01         0.1498217763E+02
     Ti         0.2016373540E+01         0.1992901190E+01         0.1722569951E+02
      O         0.2367000000E-04         0.1985824510E+01         0.1707398180E+02
      O         0.2016379790E+01         0.4004086370E+01         0.1708236669E+02
     Ba         0.0000000000E+00         0.0000000000E+00         0.1913561581E+02
      O         0.2016360550E+01         0.2016360550E+01         0.1914846179E+02
     Ti         0.2016360550E+01         0.2016360550E+01         0.2116708400E+02
      O         0.0000000000E+00         0.2016360550E+01         0.2116708499E+02
      O         0.2016360550E+01         0.0000000000E+00         0.2116708499E+02
     Ba         0.0000000000E+00         0.0000000000E+00         0.2319855497E+02
      O         0.2016360550E+01         0.2016360550E+01         0.2318570767E+02
     Ti         0.2016360550E+01         0.2016360550E+01         0.2517793036E+02
      O         0.0000000000E+00         0.2016360550E+01         0.2519496392E+02
      O         0.2016360550E+01         0.0000000000E+00         0.2519496392E+02
     Ba         0.0000000000E+00         0.0000000000E+00         0.2732157739E+02
      O         0.2016360550E+01         0.2016360550E+01         0.2723270339E+02
     Ti         0.2016360550E+01         0.2016360550E+01         0.2911355429E+02
      O         0.0000000000E+00         0.2016360550E+01         0.2922098758E+02
      O         0.2016360550E+01         0.0000000000E+00         0.2922098758E+02
   24
    4    -0.1021255380E+04
      H        -0.9450000000E-05         0.2137643980E+01         0.1184543020E+02
     Ti         0.2016351700E+01         0.1870294510E+01         0.1317681029E+02
      O        -0.3960000000E-05         0.2019806490E+01         0.1282072775E+02
      O         0.2016355800E+01         0.1074328000E-01         0.1291535482E+02
     Ba         0.2204000000E-04         0.3978853480E+01         0.1517097999E+02
      O         0.2016398540E+01         0.1974158670E+01         0.1498190219E+02
     Ti         0.2016373540E+01         0.1991919970E+01         0.1722610218E+02
      O         0.2367000000E-04         0.1985294680E+01         0.1707392240E+02
      O         0.2016379790E+01         0.4003502860E+01         0.1708236470E+02
     Ba         0.0000000000E+00         0.0000000000E+00         0.1913561581E+02
      O         0.2016360550E+01         0.2016360550E+01         0.1914846179E+02
     Ti         0.2016360550E+01         0.2016360550E+01         0.2116708400E+02
      O         0.0000000000E+00         0.2016360550E+01         0.2116708499E+02
      O         0.2016360550E+01         0.0000000000E+00         0.2116708499E+02
     Ba         0.0000000000E+00         0.0000000000E+00         0.2319855497E+02
      O         0.2016360550E+01         0.2016360550E+01         0.2318570767E+02
     Ti         0.2016360550E+01         0.2016360550E+01         0.2517793036E+02
      O         0.0000000000E+00         0.2016360550E+01         0.2519496392E+02
      O         0.2016360550E+01         0.0000000000E+00         0.2519496392E+02
     Ba         0.0000000000E+00         0.0000000000E+00         0.2732157739E+02
      O         0.2016360550E+01         0.2016360550E+01         0.2723270339E+02
     Ti         0.2016360550E+01         0.2016360550E+01         0.2911355429E+02
      O         0.0000000000E+00         0.2016360550E+01         0.2922098758E+02
      O         0.2016360550E+01         0.0000000000E+00         0.2922098758E+02
   24
    5    -0.1021255422E+04
      H        -0.9450000000E-05         0.2138271120E+01         0.1184646044E+02
     Ti         0.2016375200E+01         0.1865940140E+01         0.1317598315E+02
      O        -0.3960000000E-05         0.2019867230E+01         0.1281938895E+02
      O         0.2016355800E+01         0.9424150000E-02         0.1291525307E+02
     Ba         0.2204000000E-04         0.3977171700E+01         0.1517126643E+02
      O         0.2016398540E+01         0.1971422630E+01         0.1498351851E+02
     Ti         0.2016373540E+01         0.1990557690E+01         0.1722616274E+02
      O         0.2367000000E-04         0.1984500090E+01         0.1707390559E+02
      O         0.2016379790E+01         0.4002566340E+01         0.1708230212E+02
     Ba         0.0000000000E+00         0.0000000000E+00         0.1913561581E+02
      O         0.2016360550E+01         0.2016360550E+01         0.1914846179E+02
     Ti         0.2016360550E+01         0.2016360550E+01         0.2116708400E+02
      O         0.0000000000E+00         0.2016360550E+01         0.2116708499E+02
      O         0.2016360550E+01         0.0000000000E+00         0.2116708499E+02
     Ba         0.0000000000E+00         0.0000000000E+00         0.2319855497E+02
      O         0.2016360550E+01         0.2016360550E+01         0.2318570767E+02
     Ti         0.2016360550E+01         0.2016360550E+01         0.2517793036E+02
      O         0.0000000000E+00         0.2016360550E+01         0.2519496392E+02
      O         0.2016360550E+01         0.0000000000E+00         0.2519496392E+02
     Ba         0.0000000000E+00         0.0000000000E+00         0.2732157739E+02
      O         0.2016360550E+01         0.2016360550E+01         0.2723270339E+02
     Ti         0.2016360550E+01         0.2016360550E+01         0.2911355429E+02
      O         0.0000000000E+00         0.2016360550E+01         0.2922098758E+02
      O         0.2016360550E+01         0.0000000000E+00         0.2922098758E+02
   24
    6    -0.1021255509E+04
      H        -0.8870000000E-05         0.2141933690E+01         0.1184977661E+02
     Ti         0.2016374200E+01         0.1865908190E+01         0.1317622084E+02
      O        -0.2750000000E-05         0.2019912660E+01         0.1281707939E+02
      O         0.2016357710E+01         0.7355150000E-02         0.1291495869E+02
     Ba         0.2471000000E-04         0.3974564620E+01         0.1517170800E+02
      O         0.2016398540E+01         0.1971305120E+01         0.1498327409E+02
     Ti         0.2016373540E+01         0.1990047380E+01         0.1722522161E+02
      O         0.2367000000E-04         0.1983620060E+01         0.1707446818E+02
      O         0.2016379790E+01         0.4001436160E+01         0.1708281982E+02
     Ba         0.0000000000E+00         0.0000000000E+00         0.1913561581E+02
      O         0.2016360550E+01         0.2016360550E+01         0.1914846179E+02
     Ti         0.2016360550E+01         0.2016360550E+01         0.2116708400E+02
      O         0.0000000000E+00         0.2016360550E+01         0.2116708499E+02
      O         0.2016360550E+01         0.0000000000E+00         0.2116708499E+02
     Ba         0.0000000000E+00         0.0000000000E+00         0.2319855497E+02
      O         0.2016360550E+01         0.2016360550E+01         0.2318570767E+02
     Ti         0.2016360550E+01         0.2016360550E+01         0.2517793036E+02
      O         0.0000000000E+00         0.2016360550E+01         0.2519496392E+02
      O         0.2016360550E+01         0.0000000000E+00         0.2519496392E+02
     Ba         0.0000000000E+00         0.0000000000E+00         0.2732157739E+02
      O         0.2016360550E+01         0.2016360550E+01         0.2723270339E+02
     Ti         0.2016360550E+01         0.2016360550E+01         0.2911355429E+02
      O         0.0000000000E+00         0.2016360550E+01         0.2922098758E+02
      O         0.2016360550E+01         0.0000000000E+00         0.2922098758E+02
   24
    7    -0.1021255614E+04
      H        -0.7780000000E-05         0.2147392620E+01         0.1184771246E+02
     Ti         0.2016370850E+01         0.1865259470E+01         0.1317721093E+02
      O        -0.2750000000E-05         0.2019702460E+01         0.1281766461E+02
      O         0.2016362460E+01         0.4831230000E-02         0.1291530230E+02
     Ba         0.2471000000E-04         0.3971411900E+01         0.1517144274E+02
      O         0.2016398540E+01         0.1970548460E+01         0.1498251525E+02
     Ti         0.2016373540E+01         0.1989904890E+01         0.1722555354E+02
      O         0.2714000000E-04         0.1982573470E+01         0.1707416273E+02
      O         0.2016379790E+01         0.4000486740E+01         0.1708229206E+02
     Ba         0.0000000000E+00         0.0000000000E+00         0.1913561581E+02
      O         0.2016360550E+01         0.2016360550E+01         0.1914846179E+02
     Ti         0.2016360550E+01         0.2016360550E+01         0.2116708400E+02
      O         0.0000000000E+00         0.2016360550E+01         0.2116708499E+02
      O         0.2016360550E+01         0.0000000000E+00         0.2116708499E+02
     Ba         0.0000000000E+00         0.0000000000E+00         0.2319855497E+02
      O         0.2016360550E+01         0.2016360550E+01         0.2318570767E+02
     Ti         0.2016360550E+01         0.2016360550E+01         0.2517793036E+02
      O         0.0000000000E+00         0.2016360550E+01         0.2519496392E+02
      O         0.2016360550E+01         0.0000000000E+00         0.2519496392E+02
     Ba         0.0000000000E+00         0.0000000000E+00         0.2732157739E+02
      O         0.2016360550E+01         0.2016360550E+01         0.2723270339E+02
     Ti         0.2016360550E+01         0.2016360550E+01         0.2911355429E+02
      O         0.0000000000E+00         0.2016360550E+01         0.2922098758E+02
      O         0.2016360550E+01         0.0000000000E+00         0.2922098758E+02
   24
    8    -0.1021255738E+04
      H        -0.7780000000E-05         0.2154380940E+01         0.1185070406E+02
     Ti         0.2016368440E+01         0.1863991640E+01         0.1317706823E+02
      O        -0.2750000000E-05         0.2019638330E+01         0.1281737726E+02
      O         0.2016362460E+01         0.4308280000E-02         0.1291669130E+02
     Ba         0.2604000000E-04         0.3971425050E+01         0.1517143431E+02
      O         0.2016396610E+01         0.1969144590E+01         0.1498260803E+02
     Ti         0.2016373540E+01         0.1989424390E+01         0.1722623854E+02
      O         0.2273000000E-04         0.1981025200E+01         0.1707377210E+02
      O         0.2016386600E+01         0.3999101740E+01         0.1708194888E+02
     Ba         0.0000000000E+00         0.0000000000E+00         0.1913561581E+02
      O         0.2016360550E+01         0.2016360550E+01         0.1914846179E+02
     Ti         0.2016360550E+01         0.2016360550E+01         0.2116708400E+02
      O         0.0000000000E+00         0.2016360550E+01         0.2116708499E+02
      O         0.2016360550E+01         0.0000000000E+00         0.2116708499E+02
     Ba         0.0000000000E+00         0.0000000000E+00         0.2319855497E+02
      O         0.2016360550E+01         0.2016360550E+01         0.2318570767E+02
     Ti         0.2016360550E+01         0.2016360550E+01         0.2517793036E+02
      O         0.0000000000E+00         0.2016360550E+01         0.2519496392E+02
      O         0.2016360550E+01         0.0000000000E+00         0.2519496392E+02
     Ba         0.0000000000E+00         0.0000000000E+00         0.2732157739E+02
      O         0.2016360550E+01         0.2016360550E+01         0.2723270339E+02
     Ti         0.2016360550E+01         0.2016360550E+01         0.2911355429E+02
      O         0.0000000000E+00         0.2016360550E+01         0.2922098758E+02
      O         0.2016360550E+01         0.0000000000E+00         0.2922098758E+02
   24
    9    -0.1021255911E+04
      H        -0.7780000000E-05         0.2164386120E+01         0.1184946767E+02
     Ti         0.2016154680E+01         0.1862590930E+01         0.1317802877E+02
      O         0.4590000000E-05         0.2019572930E+01         0.1281741761E+02
      O         0.2016362460E+01         0.3911680000E-02         0.1291658160E+02
     Ba         0.2604000000E-04         0.3971413780E+01         0.1517143228E+02
      O         0.2016396610E+01         0.1967136630E+01         0.1498212126E+02
     Ti         0.2016375810E+01         0.1988785500E+01         0.1722615334E+02
      O         0.2273000000E-04         0.1979676950E+01         0.1707455670E+02
      O         0.2016383560E+01         0.3998671260E+01         0.1708263419E+02
     Ba         0.0000000000E+00         0.0000000000E+00         0.1913561581E+02
      O         0.2016360550E+01         0.2016360550E+01         0.1914846179E+02
     Ti         0.2016360550E+01         0.2016360550E+01         0.2116708400E+02
      O         0.0000000000E+00         0.2016360550E+01         0.2116708499E+02
      O         0.2016360550E+01         0.0000000000E+00         0.2116708499E+02
     Ba         0.0000000000E+00         0.0000000000E+00         0.2319855497E+02
      O         0.2016360550E+01         0.2016360550E+01         0.2318570767E+02
     Ti         0.2016360550E+01         0.2016360550E+01         0.2517793036E+02
      O         0.0000000000E+00         0.2016360550E+01         0.2519496392E+02
      O         0.2016360550E+01         0.0000000000E+00         0.2519496392E+02
     Ba         0.0000000000E+00         0.0000000000E+00         0.2732157739E+02
      O         0.2016360550E+01         0.2016360550E+01         0.2723270339E+02
     Ti         0.2016360550E+01         0.2016360550E+01         0.2911355429E+02
      O         0.0000000000E+00         0.2016360550E+01         0.2922098758E+02
      O         0.2016360550E+01         0.0000000000E+00         0.2922098758E+02
   24
   10    -0.1021256110E+04
      H        -0.2234000000E-04         0.2176143440E+01         0.1185540186E+02
     Ti         0.2016241890E+01         0.1862085890E+01         0.1317737014E+02
      O         0.4590000000E-05         0.2019568280E+01         0.1281738828E+02
      O         0.2016345420E+01         0.3080600000E-02         0.1291665077E+02
     Ba         0.1586000000E-04         0.3970952430E+01         0.1517159074E+02
      O         0.2016386860E+01         0.1966681820E+01         0.1498318580E+02
     Ti         0.2016375810E+01         0.1988392600E+01         0.1722673898E+02
      O         0.2505000000E-04         0.1979732540E+01         0.1707417156E+02
      O         0.2016383560E+01         0.3998671260E+01         0.1708263419E+02
     Ba         0.0000000000E+00         0.0000000000E+00         0.1913561581E+02
      O         0.2016360550E+01         0.2016360550E+01         0.1914846179E+02
     Ti         0.2016360550E+01         0.2016360550E+01         0.2116708400E+02
      O         0.0000000000E+00         0.2016360550E+01         0.2116708499E+02
      O         0.2016360550E+01         0.0000000000E+00         0.2116708499E+02
     Ba         0.0000000000E+00         0.0000000000E+00         0.2319855497E+02
      O         0.2016360550E+01         0.2016360550E+01         0.2318570767E+02
     Ti         0.2016360550E+01         0.2016360550E+01         0.2517793036E+02
      O         0.0000000000E+00         0.2016360550E+01         0.2519496392E+02
      O         0.2016360550E+01         0.0000000000E+00         0.2519496392E+02
     Ba         0.0000000000E+00         0.0000000000E+00         0.2732157739E+02
      O         0.2016360550E+01         0.2016360550E+01         0.2723270339E+02
     Ti         0.2016360550E+01         0.2016360550E+01         0.2911355429E+02
      O         0.0000000000E+00         0.2016360550E+01         0.2922098758E+02
      O         0.2016360550E+01         0.0000000000E+00         0.2922098758E+02
   24
   11    -0.1021256338E+04
      H        -0.2730000000E-04         0.2190370270E+01         0.1185086409E+02
     Ti         0.2016245920E+01         0.1862032320E+01         0.1317741989E+02
      O         0.4590000000E-05         0.2019555760E+01         0.1281740266E+02
      O         0.2016338320E+01         0.1765790000E-02         0.1291668825E+02
     Ba         0.5090000000E-05         0.3970026030E+01         0.1517167926E+02
      O         0.2016385430E+01         0.1966507460E+01         0.1498298204E+02
     Ti         0.2016375810E+01         0.1988131100E+01         0.1722660786E+02
      O         0.2505000000E-04         0.1979730190E+01         0.1707425065E+02
      O         0.2016383560E+01         0.3998385210E+01         0.1708272355E+02
     Ba         0.0000000000E+00         0.0000000000E+00         0.1913561581E+02
      O         0.2016360550E+01         0.2016360550E+01         0.1914846179E+02
     Ti         0.2016360550E+01         0.2016360550E+01         0.2116708400E+02
      O         0.0000000000E+00         0.2016360550E+01         0.2116708499E+02
      O         0.2016360550E+01         0.0000000000E+00         0.2116708499E+02
     Ba         0.0000000000E+00         0.0000000000E+00         0.2319855497E+02
      O         0.2016360550E+01         0.2016360550E+01         0.2318570767E+02
     Ti         0.2016360550E+01         0.2016360550E+01         0.2517793036E+02
      O         0.0000000000E+00         0.2016360550E+01         0.2519496392E+02
      O         0.2016360550E+01         0.0000000000E+00         0.2519496392E+02
     Ba         0.0000000000E+00         0.0000000000E+00         0.2732157739E+02
      O         0.2016360550E+01         0.2016360550E+01         0.2723270339E+02
     Ti         0.2016360550E+01         0.2016360550E+01         0.2911355429E+02
      O         0.0000000000E+00         0.2016360550E+01         0.2922098758E+02
      O         0.2016360550E+01         0.0000000000E+00         0.2922098758E+02
   24
   12    -0.1021256548E+04
      H        -0.2986000000E-04         0.2199237370E+01         0.1186043621E+02
     Ti         0.2016275920E+01         0.1861469430E+01         0.1317755256E+02
      O         0.4590000000E-05         0.2019555760E+01         0.1281738872E+02
      O         0.2016333900E+01         0.6035100000E-03         0.1291755222E+02
     Ba        -0.6790000000E-05         0.3968639640E+01         0.1517162227E+02
      O         0.2016382350E+01         0.1966016000E+01         0.1498270245E+02
     Ti         0.2016372130E+01         0.1987706970E+01         0.1722663220E+02
      O         0.2505000000E-04         0.1979624170E+01         0.1707434134E+02
      O         0.2016383560E+01         0.3997865050E+01         0.1708283964E+02
     Ba         0.0000000000E+00         0.0000000000E+00         0.1913561581E+02
      O         0.2016360550E+01         0.2016360550E+01         0.1914846179E+02
     Ti         0.2016360550E+01         0.2016360550E+01         0.2116708400E+02
      O         0.0000000000E+00         0.2016360550E+01         0.2116708499E+02
      O         0.2016360550E+01         0.0000000000E+00         0.2116708499E+02
     Ba         0.0000000000E+00         0.0000000000E+00         0.2319855497E+02
      O         0.2016360550E+01         0.2016360550E+01         0.2318570767E+02
     Ti         0.2016360550E+01         0.2016360550E+01         0.2517793036E+02
      O         0.0000000000E+00         0.2016360550E+01         0.2519496392E+02
      O         0.2016360550E+01         0.0000000000E+00         0.2519496392E+02
     Ba         0.0000000000E+00         0.0000000000E+00         0.2732157739E+02
      O         0.2016360550E+01         0.2016360550E+01         0.2723270339E+02
     Ti         0.2016360550E+01         0.2016360550E+01         0.2911355429E+02
      O         0.0000000000E+00         0.2016360550E+01         0.2922098758E+02
      O         0.2016360550E+01         0.0000000000E+00         0.2922098758E+02
   24
   13    -0.1021256766E+04
      H        -0.3186000000E-04         0.2209990410E+01         0.1185631597E+02
     Ti         0.2016311640E+01         0.1860372930E+01         0.1317809220E+02
      O         0.4590000000E-05         0.2019549030E+01         0.1281739581E+02
      O         0.2016344910E+01         0.4032307430E+01         0.1291713745E+02
     Ba        -0.1352000000E-04         0.3966887060E+01         0.1517167107E+02
      O         0.2016379430E+01         0.1965183290E+01         0.1498252432E+02
     Ti         0.2016370050E+01         0.1987324660E+01         0.1722699457E+02
      O         0.2183000000E-04         0.1979349000E+01         0.1707435383E+02
      O         0.2016378970E+01         0.3997164140E+01         0.1708278309E+02
     Ba         0.0000000000E+00         0.0000000000E+00         0.1913561581E+02
      O         0.2016360550E+01         0.2016360550E+01         0.1914846179E+02
     Ti         0.2016360550E+01         0.2016360550E+01         0.2116708400E+02
      O         0.0000000000E+00         0.2016360550E+01         0.2116708499E+02
      O         0.2016360550E+01         0.0000000000E+00         0.2116708499E+02
     Ba         0.0000000000E+00         0.0000000000E+00         0.2319855497E+02
      O         0.2016360550E+01         0.2016360550E+01         0.2318570767E+02
     Ti         0.2016360550E+01         0.2016360550E+01         0.2517793036E+02
      O         0.0000000000E+00         0.2016360550E+01         0.2519496392E+02
      O         0.2016360550E+01         0.0000000000E+00         0.2519496392E+02
     Ba         0.0000000000E+00         0.0000000000E+00         0.2732157739E+02
      O         0.2016360550E+01         0.2016360550E+01         0.2723270339E+02
     Ti         0.2016360550E+01         0.2016360550E+01         0.2911355429E+02
      O         0.0000000000E+00         0.2016360550E+01         0.2922098758E+02
      O         0.2016360550E+01         0.0000000000E+00         0.2922098758E+02
   24
   14    -0.1021257018E+04
      H        -0.3015000000E-04         0.2220864400E+01         0.1186353796E+02
     Ti         0.2016340940E+01         0.1858793350E+01         0.1317785189E+02
      O         0.4590000000E-05         0.2019547970E+01         0.1281739019E+02
      O         0.2016348310E+01         0.4031850150E+01         0.1291767592E+02
     Ba         0.3254000000E-04         0.3965108720E+01         0.1517222104E+02
      O         0.2016375970E+01         0.1964121980E+01         0.1498294821E+02
     Ti         0.2016364620E+01         0.1986673040E+01         0.1722735614E+02
      O         0.1879000000E-04         0.1978819490E+01         0.1707434910E+02
      O         0.2016378970E+01         0.3996363970E+01         0.1708269759E+02
     Ba         0.0000000000E+00         0.0000000000E+00         0.1913561581E+02
      O         0.2016360550E+01         0.2016360550E+01         0.1914846179E+02
     Ti         0.2016360550E+01         0.2016360550E+01         0.2116708400E+02
      O         0.0000000000E+00         0.2016360550E+01         0.2116708499E+02
      O         0.2016360550E+01         0.0000000000E+00         0.2116708499E+02
     Ba         0.0000000000E+00         0.0000000000E+00         0.2319855497E+02
      O         0.2016360550E+01         0.2016360550E+01         0.2318570767E+02
     Ti         0.2016360550E+01         0.2016360550E+01         0.2517793036E+02
      O         0.0000000000E+00         0.2016360550E+01         0.2519496392E+02
      O         0.2016360550E+01         0.0000000000E+00         0.2519496392E+02
     Ba         0.0000000000E+00         0.0000000000E+00         0.2732157739E+02
      O         0.2016360550E+01         0.2016360550E+01         0.2723270339E+02
     Ti         0.2016360550E+01         0.2016360550E+01         0.2911355429E+02
      O         0.0000000000E+00         0.2016360550E+01         0.2922098758E+02
      O         0.2016360550E+01         0.0000000000E+00         0.2922098758E+02
   24
   15    -0.1021257347E+04
      H        -0.2560000000E-04         0.2236604050E+01         0.1186071902E+02
     Ti         0.2016356360E+01         0.1857221640E+01         0.1317886981E+02
      O         0.4590000000E-05         0.2019547970E+01         0.1281739019E+02
      O         0.2016353050E+01         0.4030878230E+01         0.1291747576E+02
     Ba         0.2594000000E-04         0.3965195310E+01         0.1517204350E+02
      O         0.2016378900E+01         0.1963033360E+01         0.1498242593E+02
     Ti         0.2016367960E+01         0.1986320680E+01         0.1722702769E+02
      O         0.1879000000E-04         0.1978091000E+01         0.1707472803E+02
      O         0.2016378970E+01         0.3996362350E+01         0.1708276343E+02
     Ba         0.0000000000E+00         0.0000000000E+00         0.1913561581E+02
      O         0.2016360550E+01         0.2016360550E+01         0.1914846179E+02
     Ti         0.2016360550E+01         0.2016360550E+01         0.2116708400E+02
      O         0.0000000000E+00         0.2016360550E+01         0.2116708499E+02
      O         0.2016360550E+01         0.0000000000E+00         0.2116708499E+02
     Ba         0.0000000000E+00         0.0000000000E+00         0.2319855497E+02
      O         0.2016360550E+01         0.2016360550E+01         0.2318570767E+02
     Ti         0.2016360550E+01         0.2016360550E+01         0.2517793036E+02
      O         0.0000000000E+00         0.2016360550E+01         0.2519496392E+02
      O         0.2016360550E+01         0.0000000000E+00         0.2519496392E+02
     Ba         0.0000000000E+00         0.0000000000E+00         0.2732157739E+02
      O         0.2016360550E+01         0.2016360550E+01         0.2723270339E+02
     Ti         0.2016360550E+01         0.2016360550E+01         0.2911355429E+02
      O         0.0000000000E+00         0.2016360550E+01         0.2922098758E+02
      O         0.2016360550E+01         0.0000000000E+00         0.2922098758E+02
   24
   16    -0.1021257676E+04
      H        -0.2188000000E-04         0.2248918990E+01         0.1187204876E+02
     Ti         0.2016358860E+01         0.1856342630E+01         0.1317814204E+02
      O         0.4590000000E-05         0.2019547970E+01         0.1281739019E+02
      O         0.2016362270E+01         0.4029151490E+01         0.1291777044E+02
     Ba         0.2594000000E-04         0.3965053370E+01         0.1517212754E+02
      O         0.2016380870E+01         0.1962750780E+01         0.1498297061E+02
     Ti         0.2016368650E+01         0.1986258300E+01         0.1722715883E+02
      O         0.2149000000E-04         0.1977820850E+01         0.1707444176E+02
      O         0.2016378970E+01         0.3996341020E+01         0.1708275489E+02
     Ba         0.0000000000E+00         0.0000000000E+00         0.1913561581E+02
      O         0.2016360550E+01         0.2016360550E+01         0.1914846179E+02
     Ti         0.2016360550E+01         0.2016360550E+01         0.2116708400E+02
      O         0.0000000000E+00         0.2016360550E+01         0.2116708499E+02
      O         0.2016360550E+01         0.0000000000E+00         0.2116708499E+02
     Ba         0.0000000000E+00         0.0000000000E+00         0.2319855497E+02
      O         0.2016360550E+01         0.2016360550E+01         0.2318570767E+02
     Ti         0.2016360550E+01         0.2016360550E+01         0.2517793036E+02
      O         0.0000000000E+00         0.2016360550E+01         0.2519496392E+02
      O         0.2016360550E+01         0.0000000000E+00         0.2519496392E+02
     Ba         0.0000000000E+00         0.0000000000E+00         0.2732157739E+02
      O         0.2016360550E+01         0.2016360550E+01         0.2723270339E+02
     Ti         0.2016360550E+01         0.2016360550E+01         0.2911355429E+02
      O         0.0000000000E+00         0.2016360550E+01         0.2922098758E+02
      O         0.2016360550E+01         0.0000000000E+00         0.2922098758E+02
