   14
    1    -0.5873431240E+03
      H         0.0000000000E+00         0.2016360550E+01         0.1212645113E+02
     Ti         0.2016360550E+01         0.2016360550E+01         0.1322061820E+02
      O         0.0000000000E+00         0.2016360550E+01         0.1311318365E+02
      O         0.2016360550E+01         0.0000000000E+00         0.1311318365E+02
     Ba         0.0000000000E+00         0.0000000000E+00         0.1501259159E+02
     Ti         0.2016360550E+01         0.2016360550E+01         0.1715623768E+02
      O         0.0000000000E+00         0.2016360550E+01         0.1713920380E+02
      O         0.2016360550E+01         0.0000000000E+00         0.1713920380E+02
      O         0.2016360550E+01         0.2016360550E+01         0.1510146608E+02
     Ba         0.0000000000E+00         0.0000000000E+00         0.1913561581E+02
     Ti         0.2016360550E+01         0.2016360550E+01         0.2116708400E+02
      O         0.0000000000E+00         0.2016360550E+01         0.2116708499E+02
      O         0.2016360550E+01         0.0000000000E+00         0.2116708499E+02
      O         0.2016360550E+01         0.2016360550E+01         0.1914846179E+02
   14
    2    -0.5873431301E+03
      H         0.2250000000E-05         0.2016360550E+01         0.1212783041E+02
     Ti         0.2016360550E+01         0.2016360550E+01         0.1322061820E+02
      O         0.0000000000E+00         0.2016360550E+01         0.1311318365E+02
      O         0.2016360550E+01         0.0000000000E+00         0.1311318365E+02
     Ba         0.0000000000E+00         0.0000000000E+00         0.1501259159E+02
     Ti         0.2016360550E+01         0.2016360550E+01         0.1715623768E+02
      O         0.0000000000E+00         0.2016360550E+01         0.1713920380E+02
      O         0.2016360550E+01         0.0000000000E+00         0.1713920380E+02
      O         0.2016360550E+01         0.2016360550E+01         0.1510146608E+02
     Ba         0.0000000000E+00         0.0000000000E+00         0.1913561581E+02
     Ti         0.2016360550E+01         0.2016360550E+01         0.2116708400E+02
      O         0.0000000000E+00         0.2016360550E+01         0.2116708499E+02
      O         0.2016360550E+01         0.0000000000E+00         0.2116708499E+02
      O         0.2016360550E+01         0.2016360550E+01         0.1914846179E+02
