    9
    1    -0.3704019966E+03
      H         0.0000000000E+00         0.2016360550E+01         0.1213378875E+02
     Ti         0.2016360550E+01         0.2016360550E+01         0.1321539422E+02
      O         0.0000000000E+00         0.2016360550E+01         0.1310547617E+02
      O         0.2016360550E+01         0.0000000000E+00         0.1310547617E+02
     Ba         0.0000000000E+00         0.0000000000E+00         0.1501259159E+02
     Ti         0.2016360550E+01         0.2016360550E+01         0.1715623768E+02
      O         0.0000000000E+00         0.2016360550E+01         0.1713920380E+02
      O         0.2016360550E+01         0.0000000000E+00         0.1713920380E+02
      O         0.2016360550E+01         0.2016360550E+01         0.1510146608E+02
    9
    2    -0.3704059095E+03
      H        -0.1100000000E-05         0.2016360550E+01         0.1212132344E+02
     Ti         0.2016362830E+01         0.2016360550E+01         0.1324183436E+02
      O         0.2350000000E-05         0.2016361100E+01         0.1309325765E+02
      O         0.2016361090E+01         0.1440000000E-05         0.1308561188E+02
     Ba         0.0000000000E+00         0.0000000000E+00         0.1501259159E+02
     Ti         0.2016360550E+01         0.2016360550E+01         0.1715623768E+02
      O         0.0000000000E+00         0.2016360550E+01         0.1713920380E+02
      O         0.2016360550E+01         0.0000000000E+00         0.1713920380E+02
      O         0.2016360550E+01         0.2016360550E+01         0.1510146608E+02
    9
    3    -0.3704094928E+03
      H        -0.9140000000E-05         0.2016360550E+01         0.1209468610E+02
     Ti         0.2016361070E+01         0.2016359880E+01         0.1325500821E+02
      O         0.2297000000E-04         0.2016362500E+01         0.1306603428E+02
      O         0.2016362940E+01         0.9460000000E-05         0.1304577909E+02
     Ba         0.0000000000E+00         0.0000000000E+00         0.1501259159E+02
     Ti         0.2016360550E+01         0.2016360550E+01         0.1715623768E+02
      O         0.0000000000E+00         0.2016360550E+01         0.1713920380E+02
      O         0.2016360550E+01         0.0000000000E+00         0.1713920380E+02
      O         0.2016360550E+01         0.2016360550E+01         0.1510146608E+02
    9
    4    -0.3704124940E+03
      H        -0.1397000000E-04         0.2016360550E+01         0.1205450001E+02
     Ti         0.2016364470E+01         0.2016359880E+01         0.1325692334E+02
      O         0.3970000000E-05         0.2016365910E+01         0.1302537135E+02
      O         0.2016370620E+01         0.1920000000E-04         0.1299171018E+02
     Ba         0.0000000000E+00         0.0000000000E+00         0.1501259159E+02
     Ti         0.2016360550E+01         0.2016360550E+01         0.1715623768E+02
      O         0.0000000000E+00         0.2016360550E+01         0.1713920380E+02
      O         0.2016360550E+01         0.0000000000E+00         0.1713920380E+02
      O         0.2016360550E+01         0.2016360550E+01         0.1510146608E+02
    9
    5    -0.3704136394E+03
      H        -0.1397000000E-04         0.2016360550E+01         0.1199969065E+02
     Ti         0.2016363940E+01         0.2016359880E+01         0.1325500821E+02
      O         0.1624200000E-03         0.2016436160E+01         0.1298112820E+02
      O         0.2016343050E+01         0.1920000000E-04         0.1293485826E+02
     Ba         0.0000000000E+00         0.0000000000E+00         0.1501259159E+02
     Ti         0.2016360550E+01         0.2016360550E+01         0.1715623768E+02
      O         0.0000000000E+00         0.2016360550E+01         0.1713920380E+02
      O         0.2016360550E+01         0.0000000000E+00         0.1713920380E+02
      O         0.2016360550E+01         0.2016360550E+01         0.1510146608E+02
    9
    6    -0.3704068001E+03
      H        -0.5660000000E-05         0.2016360550E+01         0.1200160808E+02
     Ti         0.2016388770E+01         0.2016359880E+01         0.1324395883E+02
      O        -0.2736300000E-03         0.2016336840E+01         0.1291495142E+02
      O         0.2016372040E+01         0.3003000000E-04         0.1294504131E+02
     Ba         0.0000000000E+00         0.0000000000E+00         0.1501259159E+02
     Ti         0.2016360550E+01         0.2016360550E+01         0.1715623768E+02
      O         0.0000000000E+00         0.2016360550E+01         0.1713920380E+02
      O         0.2016360550E+01         0.0000000000E+00         0.1713920380E+02
      O         0.2016360550E+01         0.2016360550E+01         0.1510146608E+02
    9
    7    -0.3704151268E+03
      H        -0.5660000000E-05         0.2016360550E+01         0.1199969065E+02
     Ti         0.2016288630E+01         0.2016358290E+01         0.1322561148E+02
      O        -0.1873500000E-03         0.2016341680E+01         0.1298112866E+02
      O         0.2016287780E+01         0.2216000000E-04         0.1296880044E+02
     Ba         0.0000000000E+00         0.0000000000E+00         0.1501259159E+02
     Ti         0.2016360550E+01         0.2016360550E+01         0.1715623768E+02
      O         0.0000000000E+00         0.2016360550E+01         0.1713920380E+02
      O         0.2016360550E+01         0.0000000000E+00         0.1713920380E+02
      O         0.2016360550E+01         0.2016360550E+01         0.1510146608E+02
    9
    8    -0.3704152359E+03
      H        -0.7670000000E-05         0.2016360550E+01         0.1199981671E+02
     Ti         0.2016280650E+01         0.2016358290E+01         0.1322617176E+02
      O        -0.1589600000E-03         0.2016345010E+01         0.1297429584E+02
      O         0.2016267760E+01         0.1711000000E-04         0.1296663269E+02
     Ba         0.0000000000E+00         0.0000000000E+00         0.1501259159E+02
     Ti         0.2016360550E+01         0.2016360550E+01         0.1715623768E+02
      O         0.0000000000E+00         0.2016360550E+01         0.1713920380E+02
      O         0.2016360550E+01         0.0000000000E+00         0.1713920380E+02
      O         0.2016360550E+01         0.2016360550E+01         0.1510146608E+02
    9
    9    -0.3704152359E+03
      H        -0.7670000000E-05         0.2016360550E+01         0.1199969066E+02
     Ti         0.2016275800E+01         0.2016358290E+01         0.1322630344E+02
      O        -0.1351700000E-03         0.2016347950E+01         0.1297182317E+02
      O         0.2016256650E+01         0.1711000000E-04         0.1296563134E+02
     Ba         0.0000000000E+00         0.0000000000E+00         0.1501259159E+02
     Ti         0.2016360550E+01         0.2016360550E+01         0.1715623768E+02
      O         0.0000000000E+00         0.2016360550E+01         0.1713920380E+02
      O         0.2016360550E+01         0.0000000000E+00         0.1713920380E+02
      O         0.2016360550E+01         0.2016360550E+01         0.1510146608E+02
    9
   10    -0.3704152878E+03
      H        -0.8610000000E-05         0.2016360550E+01         0.1199748609E+02
     Ti         0.2016275800E+01         0.2016358290E+01         0.1322628799E+02
      O        -0.1173400000E-03         0.2016350570E+01         0.1297089788E+02
      O         0.2016252200E+01         0.1938000000E-04         0.1296518022E+02
     Ba         0.0000000000E+00         0.0000000000E+00         0.1501259159E+02
     Ti         0.2016360550E+01         0.2016360550E+01         0.1715623768E+02
      O         0.0000000000E+00         0.2016360550E+01         0.1713920380E+02
      O         0.2016360550E+01         0.0000000000E+00         0.1713920380E+02
      O         0.2016360550E+01         0.2016360550E+01         0.1510146608E+02
    9
   11    -0.3704153711E+03
      H        -0.1015000000E-04         0.2016360550E+01         0.1199352777E+02
     Ti         0.2016277400E+01         0.2016358290E+01         0.1322619530E+02
      O        -0.9524000000E-04         0.2016355370E+01         0.1296783562E+02
      O         0.2016252200E+01         0.1383000000E-04         0.1296440323E+02
     Ba         0.0000000000E+00         0.0000000000E+00         0.1501259159E+02
     Ti         0.2016360550E+01         0.2016360550E+01         0.1715623768E+02
      O         0.0000000000E+00         0.2016360550E+01         0.1713920380E+02
      O         0.2016360550E+01         0.0000000000E+00         0.1713920380E+02
      O         0.2016360550E+01         0.2016360550E+01         0.1510146608E+02
    9
   12    -0.3704154898E+03
      H        -0.1407000000E-04         0.2016361990E+01         0.1198766646E+02
     Ti         0.2016281430E+01         0.2016358290E+01         0.1322592451E+02
      O        -0.7094000000E-04         0.2016359640E+01         0.1296202672E+02
      O         0.2016256490E+01         0.9990000000E-05         0.1296463808E+02
     Ba         0.0000000000E+00         0.0000000000E+00         0.1501259159E+02
     Ti         0.2016360550E+01         0.2016360550E+01         0.1715623768E+02
      O         0.0000000000E+00         0.2016360550E+01         0.1713920380E+02
      O         0.2016360550E+01         0.0000000000E+00         0.1713920380E+02
      O         0.2016360550E+01         0.2016360550E+01         0.1510146608E+02
    9
   13    -0.3704156445E+03
      H        -0.1731000000E-04         0.2016363820E+01         0.1197948922E+02
     Ti         0.2016288330E+01         0.2016358290E+01         0.1322535908E+02
      O        -0.4666000000E-04         0.2016362890E+01         0.1295284425E+02
      O         0.2016271890E+01         0.9990000000E-05         0.1296561096E+02
     Ba         0.0000000000E+00         0.0000000000E+00         0.1501259159E+02
     Ti         0.2016360550E+01         0.2016360550E+01         0.1715623768E+02
      O         0.0000000000E+00         0.2016360550E+01         0.1713920380E+02
      O         0.2016360550E+01         0.0000000000E+00         0.1713920380E+02
      O         0.2016360550E+01         0.2016360550E+01         0.1510146608E+02
    9
   14    -0.3704158630E+03
      H        -0.1990000000E-04         0.2016363820E+01         0.1196806861E+02
     Ti         0.2016300730E+01         0.2016358290E+01         0.1322438209E+02
      O        -0.3292000000E-04         0.2016362890E+01         0.1294099605E+02
      O         0.2016299970E+01         0.1695000000E-04         0.1296763584E+02
     Ba         0.0000000000E+00         0.0000000000E+00         0.1501259159E+02
     Ti         0.2016360550E+01         0.2016360550E+01         0.1715623768E+02
      O         0.0000000000E+00         0.2016360550E+01         0.1713920380E+02
      O         0.2016360550E+01         0.0000000000E+00         0.1713920380E+02
      O         0.2016360550E+01         0.2016360550E+01         0.1510146608E+02
    9
   15    -0.3704158047E+03
      H        -0.2683000000E-04         0.2016365090E+01         0.1195260882E+02
     Ti         0.2016311320E+01         0.2016358290E+01         0.1322287781E+02
      O        -0.2653000000E-04         0.2016362890E+01         0.1294173325E+02
      O         0.2016323810E+01         0.2582000000E-04         0.1297090792E+02
     Ba         0.0000000000E+00         0.0000000000E+00         0.1501259159E+02
     Ti         0.2016360550E+01         0.2016360550E+01         0.1715623768E+02
      O         0.0000000000E+00         0.2016360550E+01         0.1713920380E+02
      O         0.2016360550E+01         0.0000000000E+00         0.1713920380E+02
      O         0.2016360550E+01         0.2016360550E+01         0.1510146608E+02
    9
   16    -0.3704159724E+03
      H        -0.2683000000E-04         0.2016365090E+01         0.1195820506E+02
     Ti         0.2016334180E+01         0.2016355820E+01         0.1322095431E+02
      O        -0.2653000000E-04         0.2016362890E+01         0.1294099605E+02
      O         0.2016323810E+01         0.2866000000E-04         0.1296964278E+02
     Ba         0.0000000000E+00         0.0000000000E+00         0.1501259159E+02
     Ti         0.2016360550E+01         0.2016360550E+01         0.1715623768E+02
      O         0.0000000000E+00         0.2016360550E+01         0.1713920380E+02
      O         0.2016360550E+01         0.0000000000E+00         0.1713920380E+02
      O         0.2016360550E+01         0.2016360550E+01         0.1510146608E+02
    9
   17    -0.3704160941E+03
      H        -0.2683000000E-04         0.2016365860E+01         0.1196012604E+02
     Ti         0.2016495770E+01         0.2016192460E+01         0.1321904913E+02
      O        -0.1905000000E-04         0.2016363650E+01         0.1293348982E+02
      O         0.2016338050E+01         0.2866000000E-04         0.1296662902E+02
     Ba         0.0000000000E+00         0.0000000000E+00         0.1501259159E+02
     Ti         0.2016360550E+01         0.2016360550E+01         0.1715623768E+02
      O         0.0000000000E+00         0.2016360550E+01         0.1713920380E+02
      O         0.2016360550E+01         0.0000000000E+00         0.1713920380E+02
      O         0.2016360550E+01         0.2016360550E+01         0.1510146608E+02
    9
   18    -0.3704160948E+03
      H        -0.2437000000E-04         0.2016366630E+01         0.1195831645E+02
     Ti         0.2016464130E+01         0.2016193480E+01         0.1321920442E+02
      O         0.4230000000E-05         0.2016364460E+01         0.1293631776E+02
      O         0.2016383960E+01         0.8051000000E-04         0.1296720954E+02
     Ba         0.0000000000E+00         0.0000000000E+00         0.1501259159E+02
     Ti         0.2016360550E+01         0.2016360550E+01         0.1715623768E+02
      O         0.0000000000E+00         0.2016360550E+01         0.1713920380E+02
      O         0.2016360550E+01         0.0000000000E+00         0.1713920380E+02
      O         0.2016360550E+01         0.2016360550E+01         0.1510146608E+02
    9
   19    -0.3704161055E+03
      H        -0.2102000000E-04         0.2016367250E+01         0.1195790657E+02
     Ti         0.2016426870E+01         0.2016192570E+01         0.1321961427E+02
      O         0.9370000000E-05         0.2016366240E+01         0.1293545322E+02
      O         0.2016394400E+01         0.9821000000E-04         0.1296712381E+02
     Ba         0.0000000000E+00         0.0000000000E+00         0.1501259159E+02
     Ti         0.2016360550E+01         0.2016360550E+01         0.1715623768E+02
      O         0.0000000000E+00         0.2016360550E+01         0.1713920380E+02
      O         0.2016360550E+01         0.0000000000E+00         0.1713920380E+02
      O         0.2016360550E+01         0.2016360550E+01         0.1510146608E+02
    9
   20    -0.3704161300E+03
      H        -0.1806000000E-04         0.2016368590E+01         0.1195682828E+02
     Ti         0.2016322180E+01         0.2016183120E+01         0.1322010080E+02
      O         0.2266000000E-04         0.2016372670E+01         0.1293393259E+02
      O         0.2016394400E+01         0.1082200000E-03         0.1296717352E+02
     Ba         0.0000000000E+00         0.0000000000E+00         0.1501259159E+02
     Ti         0.2016360550E+01         0.2016360550E+01         0.1715623768E+02
      O         0.0000000000E+00         0.2016360550E+01         0.1713920380E+02
      O         0.2016360550E+01         0.0000000000E+00         0.1713920380E+02
      O         0.2016360550E+01         0.2016360550E+01         0.1510146608E+02
    9
   21    -0.3704161681E+03
      H        -0.2227000000E-04         0.2016370490E+01         0.1195493525E+02
     Ti         0.2016336560E+01         0.2016181350E+01         0.1321989237E+02
      O        -0.6547000000E-04         0.2016455990E+01         0.1293236379E+02
      O         0.2016385560E+01         0.1228700000E-03         0.1296746361E+02
     Ba         0.0000000000E+00         0.0000000000E+00         0.1501259159E+02
     Ti         0.2016360550E+01         0.2016360550E+01         0.1715623768E+02
      O         0.0000000000E+00         0.2016360550E+01         0.1713920380E+02
      O         0.2016360550E+01         0.0000000000E+00         0.1713920380E+02
      O         0.2016360550E+01         0.2016360550E+01         0.1510146608E+02
    9
   22    -0.3704161764E+03
      H        -0.2227000000E-04         0.2016373820E+01         0.1195220218E+02
     Ti         0.2016318580E+01         0.2016176800E+01         0.1321944794E+02
      O        -0.5167000000E-04         0.2016451370E+01         0.1293260860E+02
      O         0.2016346340E+01         0.1813200000E-03         0.1296795834E+02
     Ba         0.0000000000E+00         0.0000000000E+00         0.1501259159E+02
     Ti         0.2016360550E+01         0.2016360550E+01         0.1715623768E+02
      O         0.0000000000E+00         0.2016360550E+01         0.1713920380E+02
      O         0.2016360550E+01         0.0000000000E+00         0.1713920380E+02
      O         0.2016360550E+01         0.2016360550E+01         0.1510146608E+02
    9
   23    -0.3704161873E+03
      H        -0.2298000000E-04         0.2016374790E+01         0.1195275892E+02
     Ti         0.2016344390E+01         0.2016131140E+01         0.1321892218E+02
      O        -0.5071000000E-04         0.2016451370E+01         0.1293236385E+02
      O         0.2016250520E+01         0.4740500000E-03         0.1296825235E+02
     Ba         0.0000000000E+00         0.0000000000E+00         0.1501259159E+02
     Ti         0.2016360550E+01         0.2016360550E+01         0.1715623768E+02
      O         0.0000000000E+00         0.2016360550E+01         0.1713920380E+02
      O         0.2016360550E+01         0.0000000000E+00         0.1713920380E+02
      O         0.2016360550E+01         0.2016360550E+01         0.1510146608E+02
    9
   24    -0.3704162015E+03
      H        -0.2211000000E-04         0.2016374790E+01         0.1195295340E+02
     Ti         0.2016336930E+01         0.2016117570E+01         0.1321906921E+02
      O        -0.4756000000E-04         0.2016462620E+01         0.1293146868E+02
      O         0.2016260630E+01         0.4733500000E-03         0.1296814161E+02
     Ba         0.0000000000E+00         0.0000000000E+00         0.1501259159E+02
     Ti         0.2016360550E+01         0.2016360550E+01         0.1715623768E+02
      O         0.0000000000E+00         0.2016360550E+01         0.1713920380E+02
      O         0.2016360550E+01         0.0000000000E+00         0.1713920380E+02
      O         0.2016360550E+01         0.2016360550E+01         0.1510146608E+02
    9
   25    -0.3704162165E+03
      H        -0.2211000000E-04         0.2016374790E+01         0.1195279947E+02
     Ti         0.2016322450E+01         0.2016078810E+01         0.1321932724E+02
      O        -0.3703000000E-04         0.2016556810E+01         0.1293045520E+02
      O         0.2016269090E+01         0.4743700000E-03         0.1296809539E+02
     Ba         0.0000000000E+00         0.0000000000E+00         0.1501259159E+02
     Ti         0.2016360550E+01         0.2016360550E+01         0.1715623768E+02
      O         0.0000000000E+00         0.2016360550E+01         0.1713920380E+02
      O         0.2016360550E+01         0.0000000000E+00         0.1713920380E+02
      O         0.2016360550E+01         0.2016360550E+01         0.1510146608E+02
    9
   26    -0.3704162123E+03
      H        -0.2211000000E-04         0.2016374790E+01         0.1195219604E+02
     Ti         0.2016323150E+01         0.2016063090E+01         0.1321925407E+02
      O        -0.3889000000E-04         0.2016568010E+01         0.1293094979E+02
      O         0.2016272630E+01         0.4814800000E-03         0.1296811137E+02
     Ba         0.0000000000E+00         0.0000000000E+00         0.1501259159E+02
     Ti         0.2016360550E+01         0.2016360550E+01         0.1715623768E+02
      O         0.0000000000E+00         0.2016360550E+01         0.1713920380E+02
      O         0.2016360550E+01         0.0000000000E+00         0.1713920380E+02
      O         0.2016360550E+01         0.2016360550E+01         0.1510146608E+02
